%nprocs=8
%mem=100MW
# hf/3-21g 

../74-98-6-3d.sdf converted by 'molgjf.pl'

0 1
C 3.3709 1.6468 1.3253
C 2.0046 1.0757 0.9328
C 0.9486 1.2446 2.0298
H 3.7626 1.1536 2.2237
H 3.3033 2.7202 1.5421
H 4.1075 1.5143 0.5244
H 1.6559 1.5639 0.0126
H 2.1109 0.0097 0.6897
H -0.0189 0.8295 1.7244
H 0.7958 2.3038 2.2719
H 1.2529 0.7365 2.9535

