%mem=1000mw
%nprocs=12
# b3lyp/gen opt freq

methyl vinyl ketone, B3LYP/pcseg-2

0 1
C         -0.511608       0.096280       0.000000
O         -1.452138       0.864896       0.000000
C         -0.719403      -1.409161       0.000000
C          0.876731       0.632601       0.000000
C          1.991322      -0.098619       0.000000
H          0.917416       1.718636       0.000000
H          2.973212       0.362944       0.000000
H          1.972184      -1.183503       0.000000
H         -1.789613      -1.616638       0.000000
H         -0.259345      -1.866880       0.882093
H         -0.259345      -1.866880      -0.882093

@pcseg2.gbs

