%chk=AcC2H3.chk
%mem=500mw
%nprocs=4
# b3lyp/gen opt freq CPHF(Grid=OneStep)

methyl vinyl ketone, B3LYP/pcseg-2

0 1
C       0.000000     0.575006     0.000000
O       0.496810     1.683527     0.000000
C      -1.502716     0.388294     0.000000
C       0.883784    -0.620293     0.000000
C       0.471157    -1.885048     0.000000
H       1.940052    -0.378982     0.000000
H       1.175460    -2.705868     0.000000
H      -0.577383    -2.151068     0.000000
H      -1.979328     1.364179     0.000000
H      -1.823313    -0.172116     0.879572
H      -1.823313    -0.172116    -0.879572

@pcseg2.gbs

--Link1--
%chk=AcC2H3.chk
%mem=500mw
%nprocs=4
# rohf/gen geom=check guess=check

methyl vinyl ketone, ROHF/cc-pVTZ-F12

0 1

@ccpvtz-f12.gbs
