%chk=AcCl.chk
%mem=500mw
%nprocs=4
# b3lyp/gen opt freq CPHF(Grid=OneStep)

acetyl chloride, B3LYP/pcseg-2

0 1
C       0.000000     0.540514     0.000000
C       1.485067     0.732104     0.000000
O      -0.840570     1.367357     0.000000
Cl     -0.454478    -1.227787     0.000000
H       1.710951     1.795285     0.000000
H       1.914668     0.251261     0.877842
H       1.914668     0.251261    -0.877842

@pcseg2.gbs

--Link1--
%chk=AcCl.chk
%mem=500mw
%nprocs=4
# rohf/gen geom=check guess=check

acetyl chloride, ROHF/cc-pVTZ-F12

0 1

@ccpvtz-f12.gbs
