%mem=1000mw
%nprocs=12
# b3lyp/gen opt freq

acetyl chloride, B3LYP/pcseg-2

0 1
C	0.0000000	0.5466140	0.0000000
C	1.4907350	0.7230690	0.0000000
O	-0.8399980	1.3757530	0.0000000
Cl	-0.4578820	-1.2284480	0.0000000
H	1.7270830	1.7881730	0.0000000
H	1.9162420	0.2356620	0.8809550
H	1.9162420	0.2356620	-0.8809550

@pcseg2.gbs

