%mem=1000MW
%nprocs=12
# opt freq b3lyp/gen 

acenaphthylene, B3LYP/pcseg-2

0 1
 C                  0.00000000    0.00000000    0.14101217
 C                  0.00000000    1.16157752    0.95200279
 C                  0.00000000   -1.16157752    0.95200279
 C                  0.00000000    0.00000000   -1.25596654
 C                  0.00000000    0.68200525    2.34457826
 C                  0.00000000    2.39017344    0.32123017
 C                  0.00000000   -0.68200525    2.34457826
 C                  0.00000000   -2.39017344    0.32123017
 C                  0.00000000   -1.28256905   -1.88026594
 C                 -0.00000000    1.28256905   -1.88026594
 C                  0.00000000    2.42916397   -1.10405635
 C                  0.00000000   -2.42916397   -1.10405635
 H                  0.00000000    1.31899892    3.22184103
 H                  0.00000000    3.32332197    0.87959818
 H                  0.00000000   -1.31899892    3.22184103
 H                  0.00000000   -3.32332197    0.87959818
 H                  0.00000000   -1.35992681   -2.96490213
 H                 -0.00000000    1.35992681   -2.96490213
 H                  0.00000000    3.39914852   -1.59430287
 H                  0.00000000   -3.39914852   -1.59430287

@pcseg2.gbs

