%chk=acenaphthylene.chk
%mem=1000mw
%nprocs=4
# b3lyp/gen opt freq CPHF(Grid=OneStep)

acenaphthylene, B3LYP/pcseg-2

0 1
C       0.000000    -0.000000    -0.139905
C      -0.000000     1.157838    -0.947765
C      -0.000000    -1.157838    -0.947765
C      -0.000000     0.000000     1.251296
C      -0.000000     0.679402    -2.337275
C      -0.000000     2.381835    -0.320103
C      -0.000000    -0.679402    -2.337275
C      -0.000000    -2.381835    -0.320103
C       0.000000    -1.278641     1.873534
C       0.000000     1.278641     1.873534
C      -0.000000     2.420533     1.100201
C      -0.000000    -2.420533     1.100201
H      -0.000000     1.311919    -3.211556
H      -0.000000     3.310586    -0.876297
H      -0.000000    -1.311919    -3.211556
H      -0.000000    -3.310586    -0.876297
H       0.000000    -1.356735     2.953177
H       0.000000     1.356735     2.953177
H      -0.000000     3.385764     1.588953
H      -0.000000    -3.385764     1.588953

@pcseg2.gbs

--Link1--
%chk=acenaphthylene.chk
%mem=1000mw
%nprocs=4
# rohf/gen geom=check guess=check

acenaphthylene, ROHF/cc-pVTZ-F12

0 1

@ccpvtz-f12.gbs
