%chk=acetoxyl.chk
%mem=500mw
%nprocs=4
# b3lyp/gen opt freq CPHF(Grid=OneStep)

CH3COO, B3LYP/pcseg-2

0 2
C      -1.385706     0.000036    -0.003138
C       0.103308    -0.000132    -0.007502
O       0.809432     1.038189     0.001471
H      -1.762259     0.895171    -0.494731
H      -1.762452    -0.894269    -0.496198
H      -1.732309    -0.001015     1.031409
O       0.809494    -1.038103     0.001449

@pcseg2.gbs

--Link1--
%chk=acetoxyl.chk
%mem=500mw
%nprocs=4
# rohf/gen geom=check guess=check

CH3COO, ROHF/cc-pVTZ-F12

0 2

@ccpvtz-f12.gbs
