%mem=500mw
%nprocs=12
# b3lyp/gen opt freq symm=loose

acetone, B3LYP/pcseg-2

0 1
 C     0.00000000   0.10012848   0.00000000
 O     0.00000000   1.30924248   0.00000000
 C     0.00000000  -0.69639252   1.28772900
 C     0.00000000  -0.69639252  -1.28772900
 H     0.00000000  -0.02561752   2.14239985
 H     0.00000000  -0.02561752  -2.14239985
 H     0.87676894  -1.34619152   1.32944859
 H    -0.87676894  -1.34619152   1.32944859
 H    -0.87676894  -1.34619152  -1.32944859
 H     0.87676894  -1.34619152  -1.32944859

@pcseg2.gbs

