%mem=1000mw
%nprocs=12
# b3lyp/gen opt freq

acetonyl, B3LYP/pcseg-2

0 2
C	0.0000000	0.1495010	0.0000000
O	0.4731670	1.2868950	0.0000000
C	-1.4247320	-0.0503580	0.0000000
C	0.8943920	-1.0819630	0.0000000
H	-2.0715770	0.8191710	0.0000000
H	-1.8697930	-1.0395830	0.0000000
H	1.9396970	-0.7716500	0.0000000
H	0.6991900	-1.7030880	0.8811710
H	0.6991900	-1.7030880	-0.8811710

@pcseg2.gbs

