%chk=AcNH2.chk
%mem=500mw
%nprocs=4
# b3lyp/gen opt freq CPHF(Grid=OneStep)

acetamide, B3LYP/pcseg-2

0 1
C      -1.359102    -0.347220     0.000003
C       0.075066     0.145584    -0.000073
N       1.035853    -0.822718     0.000216
O       0.351729     1.329178    -0.000020
H      -1.863340     0.054162    -0.877906
H      -1.450984    -1.432301    -0.000228
H      -1.863046     0.053672     0.878311
H       2.000595    -0.539472    -0.000321
H       0.816185    -1.800643    -0.000795

@pcseg2.gbs

--Link1--
%chk=AcNH2.chk
%mem=500mw
%nprocs=4
# rohf/gen geom=check guess=check

acetamide, ROHF/cc-pVTZ-F12

0 1

@ccpvtz-f12.gbs
