%chk=acoch2.chk
%mem=500mw
%nprocs=4
# b3lyp/gen opt freq CPHF(Grid=OneStep)

acetoxymethyl, B3LYP/pcseg-2

0 2
C      -0.423019     0.190416    -0.001274
O       0.639398    -0.681692    -0.001641
O      -0.285943     1.381867    -0.000292
C      -1.719167    -0.564877     0.000484
C       1.902117    -0.174729     0.001779
H       2.675371    -0.920109    -0.001118
H       2.038109     0.891844     0.002458
H      -2.546013     0.137331    -0.026580
H      -1.766693    -1.231398    -0.860505
H      -1.788000    -1.183935     0.895280

@pcseg2.gbs

--Link1--
%chk=acoch2.chk
%mem=500mw
%nprocs=4
# rohf/gen geom=check guess=check

acetoxymethyl, ROHF/cc-pVTZ-F12

0 2

@ccpvtz-f12.gbs
