%mem=500mw
%nprocs=4
# b3lyp/gen opt freq symm=loose

acetoxymethyl, B3LYP/pcseg-2

0 2
C         -0.445210       0.139695      -0.001605
O          0.650929      -0.687471      -0.003466
O         -0.363863       1.337648      -0.000325
C         -1.707908      -0.679542       0.000189
C          1.887104      -0.114343       0.021689
H          2.694907      -0.817397      -0.105650
H          1.958676       0.957138      -0.082935
H         -2.569796      -0.014260      -0.026639
H         -1.724591      -1.350509      -0.863352
H         -1.747743      -1.304419       0.897342

@pcseg2.gbs

