%chk=acrolein.chk
%mem=500mw
%nprocs=4
# b3lyp/gen opt freq CPHF(Grid=OneStep)

propenal, B3LYP/pcseg-2

0 1
C      -0.147871    -0.745494     0.000000
C      -0.000000     0.718157    -0.000000
C       1.203575     1.287230    -0.000000
O      -1.208308    -1.324187     0.000000
H       0.808078    -1.308429     0.000000
H      -0.915020     1.297672    -0.000000
H       1.334758     2.360227    -0.000000
H       2.104417     0.684673    -0.000000

@pcseg2.gbs

--Link1--
%chk=acrolein.chk
%mem=500mw
%nprocs=4
# rohf/gen geom=check guess=check

propenal, ROHF/cc-pVTZ-F12

0 1

@ccpvtz-f12.gbs
