%chk=anisole.chk
%mem=1000mw
%nprocs=4
# b3lyp/gen opt freq CPHF(Grid=OneStep)

methoxybenzene, B3LYP/pcseg-2

0 1
C       0.000000     0.527058     0.000000
C       0.921490    -0.519199     0.000000
C       0.464609    -1.836091     0.000000
C      -0.892537    -2.120153     0.000000
C      -1.806661    -1.067525     0.000000
C      -1.369039     0.245836     0.000000
O       0.334896     1.848389     0.000000
C       1.707483     2.201181     0.000000
H       1.983158    -0.325351     0.000000
H       1.186672    -2.641894     0.000000
H      -1.237630    -3.144555     0.000000
H      -2.868903    -1.272824     0.000000
H      -2.067024     1.071365     0.000000
H       1.738217     3.287062     0.000000
H       2.217138     1.826228     0.891187
H       2.217138     1.826228    -0.891187

@pcseg2.gbs

--Link1--
%chk=anisole.chk
%mem=1000mw
%nprocs=4
# rohf/gen geom=check guess=check

methoxybenzene, ROHF/cc-pVTZ-F12

0 1

@ccpvtz-f12.gbs
