%chk=benzyl.chk
%mem=500mw
%nprocs=4
# b3lyp/gen opt freq CPHF(Grid=OneStep)

benzyl, B3LYP/pcseg-2

0 2
C       0.000000     0.000000     0.991663
C       0.000000     1.213805     0.250608
C       0.000000     1.207141    -1.128885
C       0.000000    -0.000000    -1.831799
C      -0.000000    -1.207141    -1.128885
C      -0.000000    -1.213805     0.250608
C       0.000000     0.000000     2.392188
H       0.000000     2.152560     0.789326
H       0.000000     2.144099    -1.669971
H       0.000000    -0.000000    -2.912917
H      -0.000000    -2.144099    -1.669971
H      -0.000000    -2.152560     0.789326
H       0.000000     0.924678     2.950608
H      -0.000000    -0.924678     2.950608

@pcseg2.gbs

--Link1--
%chk=benzyl.chk
%mem=500mw
%nprocs=4
# rohf/gen geom=check guess=check

benzyl, ROHF/cc-pVTZ-F12

0 2

@ccpvtz-f12.gbs
