%chk=benzene.chk
%mem=500mw
%nprocs=4
# b3lyp/gen opt freq CPHF(Grid=OneStep)

benzene, B3LYP/pcseg-2

0 1
C       0.000000     1.390727     0.000000
C       1.204405     0.695364     0.000000
C       1.204405    -0.695364     0.000000
C      -0.000000    -1.390727     0.000000
C      -1.204405    -0.695364     0.000000
C      -1.204405     0.695364     0.000000
H       0.000000     2.472542     0.000000
H       2.141284     1.236271     0.000000
H       2.141284    -1.236271     0.000000
H      -0.000000    -2.472542     0.000000
H      -2.141284    -1.236271     0.000000
H      -2.141284     1.236271     0.000000

@pcseg2.gbs

--Link1--
%chk=benzene.chk
%mem=500mw
%nprocs=4
# rohf/gen geom=check guess=check

benzene, ROHF/cc-pVTZ-F12

0 1

@ccpvtz-f12.gbs
