%chk=benzyne.chk
%mem=500mw
%nprocs=4
# b3lyp/gen opt freq CPHF(Grid=OneStep)

o-benzyne, B3LYP/pcseg-2

0 1
C      -0.000000     0.620516    -1.231021
C      -0.000000    -0.620516    -1.231021
C      -0.000000     1.455581    -0.133617
C      -0.000000    -1.455581    -0.133617
C      -0.000000     0.700553     1.053625
C      -0.000000    -0.700553     1.053625
H      -0.000000     2.535408    -0.135434
H      -0.000000    -2.535408    -0.135434
H      -0.000000     1.224514     2.001513
H      -0.000000    -1.224514     2.001513

@pcseg2.gbs

--Link1--
%chk=benzyne.chk
%mem=500mw
%nprocs=4
# rohf/gen geom=check guess=check

o-benzyne, ROHF/cc-pVTZ-F12

0 1

@ccpvtz-f12.gbs
