%mem=500mw
%nprocs=6
# b3lyp/gen opt freq

bicyclo[3.2.1]octan-2-one, B3LYP/pcseg-2

0 1
C           0        1.387307   -0.128292   -0.052060
C           0        0.888449    1.192041   -0.624053
C           0       -0.375705    1.728426    0.081406
C           0       -1.351094    0.607583    0.474947
C           0       -1.759152   -0.264097   -0.735232
C           0       -0.678522   -1.379961   -0.820908
C           0        0.296462   -1.105474    0.353403
O           0        2.565218   -0.378672    0.064872
C           0       -0.616183   -0.394320    1.376689
H           0        1.706158    1.910294   -0.606021
H           0        0.662834    0.999760   -1.678241
H           0       -0.080367    2.267208    0.985182
H           0       -0.874220    2.453270   -0.565383
H           0       -2.220010    1.046916    0.966727
H           0       -2.743608   -0.701522   -0.568308
H           0       -1.827747    0.321187   -1.652759
H           0        0.772092   -2.007070    0.733929
H           0       -0.064258    0.081574    2.188959
H           0       -1.306861   -1.114338    1.821097
H           0       -0.168444   -1.399243   -1.784162
H           0       -1.126682   -2.364095   -0.685157

@pcseg2.gbs

