%chk=bicyc82one.chk
%mem=500mw
%nprocs=8
# b3lyp/gen opt freq

bicyclo[3.2.1]octan-2-one opt, B3LYP/pcseg-2

0 1
 C                  1.34691500   -0.06805300   -0.05048700
 C                  0.72799400    1.22239300   -0.56074800
 C                 -0.57322300    1.62143100    0.16971500
 C                 -1.43516100    0.39025600    0.52372200
 C                 -1.70840100   -0.52910400   -0.70673700
 C                 -0.53966200   -1.44609100   -0.82533100
 C                  0.30556100   -1.15695500    0.35921000
 O                  2.52151100   -0.26891300    0.04481800
 C                 -0.58176300   -0.50964200    1.34999700
 H                  1.48113500    2.00577100   -0.50402300
 H                  0.52570100    1.04672900   -1.62356300
 H                 -0.32892500    2.15626700    1.08935800
 H                 -1.15576900    2.30098300   -0.45332000
 H                 -2.33203900    0.69371900    1.06877600
 H                 -2.60088200   -1.14121800   -0.54095700
 H                 -1.86179100   -0.01745100   -1.66458200
 H                  0.84692100   -2.03890000    0.71371900
 H                 -0.00905221    0.05715499    2.05401655
 H                 -1.18127761   -1.24017939    1.85179113
 H                  0.00151112   -1.24271228   -1.72570245
 H                 -0.86477678   -2.46537398   -0.80912635

@/home/irikura/basis/pcseg2.gbs

