%mem=1000mw
%nprocs=12
# b3lyp/gen opt freq

1,3-butadien-2-ol, B3LYP/pcseg-2

0 1
C         -1.643088      -0.792589       0.000000
C         -0.510980      -0.074483       0.000000
O         -0.476837       1.289790       0.000000
C          0.815248      -0.687700       0.000000
C          1.965456      -0.012591       0.000000
H         -1.605826      -1.873273       0.000000
H         -2.623063      -0.327442       0.000000
H          1.982950       1.070748       0.000000
H          2.919896      -0.526427       0.000000
H          0.812941      -1.773670       0.000000
H         -1.380399       1.622469       0.000000

@pcseg2.gbs

