%chk=butadienyl2CCH.chk
%mem=500mw
%nprocs=4
# b3lyp/gen opt freq CPHF(Grid=OneStep)

butadien-2-yl acetylene, B3LYP/pcseg-2

0 1
C       0.180266     1.930955     0.000000
C       0.000000     0.599178     0.000000
C       1.125609    -0.283561     0.000000
C       2.058288    -1.040700     0.000000
C      -1.349279     0.017803     0.000000
C      -1.634773    -1.282581     0.000000
H       1.166834     2.369063     0.000000
H      -0.667726     2.601917     0.000000
H       2.890244    -1.699824     0.000000
H      -0.856822    -2.034012     0.000000
H      -2.658799    -1.627839     0.000000
H      -2.154399     0.744134     0.000000

@pcseg2.gbs

--Link1--
%chk=butadienyl2CCH.chk
%mem=500mw
%nprocs=4
# rohf/gen geom=check guess=check

butadien-2-yl acetylene, ROHF/cc-pVTZ-F12

0 1

@ccpvtz-f12.gbs
