%mem=1000mw
%nprocs=12
# b3lyp/gen opt freq

butyraldehyde, B3LYP/pcseg-2

0 1
C	2.2916200	-0.3744370	0.0000000
H	2.8215190	-1.3268540	0.0000000
H	2.5999710	0.1876630	0.8837380
H	2.5999710	0.1876630	-0.8837380
C	0.7678170	-0.5955080	0.0000000
H	0.4814970	-1.1715710	-0.8789450
H	0.4814970	-1.1715710	0.8789450
C	0.0000000	0.7388920	0.0000000
H	0.2965180	1.3226460	0.8787630
H	0.2965180	1.3226460	-0.8787630
C	-1.4909650	0.6323630	0.0000000
H	-2.0549540	1.5505160	0.0000000
O	-2.1166700	-0.4136250	0.0000000

@pcseg2.gbs

