%mem=500mw
%nprocs=4
# b3lyp/gen opt freq 

1,3-butadiene, B3LYP/pcseg-2

0 1
C	-0.3249680	0.6495910	0.0000000
C	0.3249680	-0.6495910	0.0000000
C	0.3249680	1.8150180	0.0000000
C	-0.3249680	-1.8150180	0.0000000
H	-1.4110140	0.6449240	0.0000000
H	1.4110140	-0.6449240	0.0000000
H	-0.2009520	2.7594620	0.0000000
H	1.4073330	1.8584230	0.0000000
H	0.2009520	-2.7594620	0.0000000
H	-1.4073330	-1.8584230	0.0000000

@pcseg2.gbs

