%chk=butadiene.chk
%mem=500mw
%nprocs=4
# b3lyp/gen opt freq CPHF(Grid=OneStep)

1,3-butadiene, B3LYP/pcseg-2

0 1
C      -0.324968     0.649591     0.000000
C       0.324968    -0.649591     0.000000
C       0.324968     1.815018     0.000000
C      -0.324968    -1.815018     0.000000
H      -1.411014     0.644924     0.000000
H       1.411014    -0.644924     0.000000
H      -0.200952     2.759462     0.000000
H       1.407333     1.858423     0.000000
H       0.200952    -2.759462     0.000000
H      -1.407333    -1.858423     0.000000

@pcseg2.gbs

--Link1--
%chk=butadiene.chk
%mem=500mw
%nprocs=4
# rohf/gen geom=check guess=check

1,3-butadiene, ROHF/cc-pVTZ-F12

0 1

@ccpvtz-f12.gbs
