%chk=butanal.chk
%mem=500mw
%nprocs=4
# b3lyp/gen opt freq CPHF(Grid=OneStep)

butyraldehyde, B3LYP/pcseg-2

0 1
C       2.285948    -0.364475     0.000000
H       2.814141    -1.318284     0.000000
H       2.611077     0.192809     0.880941
H       2.611077     0.192809    -0.880941
C       0.773046    -0.573313     0.000000
H       0.475564    -1.161519    -0.869795
H       0.475564    -1.161519     0.869795
C       0.000000     0.740368     0.000000
H       0.262898     1.359688     0.867268
H       0.262898     1.359688    -0.867268
C      -1.499063     0.605883     0.000000
H      -2.049855     1.570647     0.000000
O      -2.102868    -0.435637     0.000000

@pcseg2.gbs

--Link1--
%chk=butanal.chk
%mem=500mw
%nprocs=4
# rohf/gen geom=check guess=check

butyraldehyde, ROHF/cc-pVTZ-F12

0 1

@ccpvtz-f12.gbs
