%mem=500mw
%nprocs=8
# b3lyp/gen opt freq symm=loose

2-butene (trans), B3LYP/pcseg-2

0 1
C	0.0000000	0.6656310	0.0000000
C	0.0000000	-0.6656310	0.0000000
C	-1.2228790	1.5355660	0.0000000
C	1.2228790	-1.5355660	0.0000000
H	0.9577680	1.1881200	0.0000000
H	-0.9577680	-1.1881200	0.0000000
H	-2.1410070	0.9425890	0.0000000
H	2.1410070	-0.9425890	0.0000000
H	-1.2465610	2.1913620	0.8779350
H	-1.2465610	2.1913620	-0.8779350
H	1.2465610	-2.1913620	0.8779350
H	1.2465610	-2.1913620	-0.8779350

@pcseg2.gbs

