%chk=butene1.chk
%mem=500mw
%nprocs=4
# b3lyp/gen opt freq CPHF(Grid=OneStep)

1-butene, B3LYP/pcseg-2

0 1
C       1.728805    -0.241870    -0.290396
C       0.536306     0.516706     0.305911
C      -0.721041    -0.299706     0.329480
C      -1.859071     0.019988    -0.274032
H      -0.667136    -1.231594     0.887106
H       1.538570    -0.514235    -1.329085
H       2.633769     0.365986    -0.259309
H       1.926486    -1.161626     0.262979
H       0.786798     0.814467     1.329551
H       0.362697     1.438685    -0.253232
H      -1.960815     0.936385    -0.843511
H      -2.730367    -0.618776    -0.220272

@pcseg2.gbs

--Link1--
%chk=butene1.chk
%mem=500mw
%nprocs=4
# rohf/gen geom=check guess=check

1-butene, ROHF/cc-pVTZ-F12

0 1

@ccpvtz-f12.gbs
