%mem=500mw
%nprocs=8
# b3lyp/gen opt freq

butyrolactone, B3LYP/pcseg-2

0 1
O  -0.0888    0.1537    1.6347
C   0.8803    0.8233    1.3938
C   0.9412    2.2432    0.8339
O   2.1530    0.3676    1.5946
C   2.3734    2.6888    1.1449
C   3.1225    1.3460    1.1701
H   0.1559    2.8588    1.2773
H   0.7506    2.1899   -0.2459
H   2.4192    3.1642    2.1307
H   2.7930    3.3846    0.4135
H   3.4907    1.0607    0.1767
H   3.9556    1.3141    1.8760

@pcseg2.gbs

