%chk=butyne1.chk
%mem=500mw
%nprocs=4
# b3lyp/gen opt freq CPHF(Grid=OneStep)

1-butyne, B3LYP/pcseg-2

0 1
C       1.329245    -1.459246     0.000000
C       0.738582    -0.414939     0.000000
C       0.000000     0.842721     0.000000
C      -1.523764     0.650362     0.000000
H       1.856402    -2.380188     0.000000
H       0.297710     1.428030     0.873810
H       0.297710     1.428030    -0.873810
H      -2.026421     1.617643     0.000000
H      -1.844891     0.096549    -0.881287
H      -1.844891     0.096549     0.881287

@pcseg2.gbs

--Link1--
%chk=butyne1.chk
%mem=500mw
%nprocs=4
# rohf/gen geom=check guess=check

1-butyne, ROHF/cc-pVTZ-F12

0 1

@ccpvtz-f12.gbs
