%chk=butyrolactone.chk
%mem=500mw
%nprocs=4
# b3lyp/gen opt freq CPHF(Grid=OneStep)

butyrolactone, B3LYP/pcseg-2

0 1
O       2.081742    -0.030531    -0.067584
C       0.889269    -0.002419     0.002676
C      -0.022718     1.205804     0.160182
O       0.128181    -1.130677    -0.044713
C      -1.405259     0.669204    -0.208561
C      -1.270023    -0.821053     0.123778
H       0.333444     2.027205    -0.455689
H       0.032305     1.527572     1.202802
H      -1.592727     0.800420    -1.274342
H      -2.220615     1.139151     0.337352
H      -1.546036    -1.039470     1.157276
H      -1.833362    -1.474431    -0.537471

@pcseg2.gbs

--Link1--
%chk=butyrolactone.chk
%mem=500mw
%nprocs=4
# rohf/gen geom=check guess=check

butyrolactone, ROHF/cc-pVTZ-F12

0 1

@ccpvtz-f12.gbs
