%mem=1000mw
%nprocs=12
# b3lyp/gen opt freq

1-butyne, B3LYP/pcseg-2

0 1
C	1.3322410	-1.4573010	0.0000000
C	0.7400870	-0.4111710	0.0000000
C	0.0000000	0.8452150	0.0000000
C	-1.5261200	0.6437800	0.0000000
H	1.8619040	-2.3773390	0.0000000
H	0.2931750	1.4373720	0.8761880
H	0.2931750	1.4373720	-0.8761880
H	-2.0386160	1.6104210	0.0000000
H	-1.8434410	0.0845200	-0.8842050
H	-1.8434410	0.0845200	0.8842050

@pcseg2.gbs

