%mem=1000mw
%nprocs=12
# b3lyp/gen opt freq

1,2-diphenylethane, B3LYP/pcseg-2

0 1
C	-1.7553590	-1.7029020	-1.5026670
C	1.7553590	1.7029020	-1.5026670
C	1.5620730	0.8317430	-0.4379700
C	0.7036270	3.4609180	-0.2517750
C	-1.3267060	-3.0207700	-1.4134310
C	1.3267060	3.0207700	-1.4134310
C	-1.5620730	-0.8317430	-0.4379700
C	-0.7036270	-3.4609180	-0.2517750
C	-0.9389420	-1.2598640	0.7333080
C	0.9389420	1.2598640	0.7333080
C	0.5134850	2.5865550	0.8094940
C	-0.5134850	-2.5865550	0.8094940
C	-0.7036270	-0.3175670	1.8828110
C	0.7036270	0.3175670	1.8828110
H	-2.2444300	-1.3500550	-2.4039110
H	2.2444300	1.3500550	-2.4039110
H	-1.4802290	-3.7025560	-2.2422510
H	1.4802290	3.7025560	-2.2422510
H	-1.8978380	0.1970450	-0.5150540
H	1.8978380	-0.1970450	-0.5150540
H	0.3707330	4.4897680	-0.1694470
H	-0.3707330	-4.4897680	-0.1694470
H	0.0330830	2.9392930	1.7174880
H	-0.0330830	-2.9392930	1.7174880
H	1.4511270	-0.4817020	1.8674150
H	-1.4511270	0.4817020	1.8674150
H	-0.8343790	-0.8563190	2.8271380
H	0.8343790	0.8563190	2.8271380

@pcseg2.gbs

