%mem=1000mw
%nprocs=12
# b3lyp/gen opt freq

pentachloroethyl, B3LYP/pcseg-2

0 2
C         -0.593043       0.000000      -0.030239
C          0.887057       0.000000      -0.275419
Cl        -0.933028       0.000000       1.765722
Cl        -1.351161       1.452529      -0.747216
Cl        -1.351161      -1.452529      -0.747216
Cl         1.767228       1.454093      -0.083200
Cl         1.767228      -1.454093      -0.083200

@pcseg2.gbs

