%mem=1000mw
%nprocs=12
# b3lyp/gen opt freq

tetrachloroethylene, B3LYP/pcseg-2

0 1
C	0.0000000	0.0000000	0.6716280
C	0.0000000	0.0000000	-0.6716280
Cl	0.0000000	1.4548000	1.5969070
Cl	0.0000000	-1.4548000	1.5969070
Cl	0.0000000	-1.4548000	-1.5969070
Cl	0.0000000	1.4548000	-1.5969070

@pcseg2.gbs

