%chk=c2cl4.chk
%mem=500mw
%nprocs=4
# b3lyp/gen opt freq CPHF(Grid=OneStep)

tetrachloroethylene, B3LYP/pcseg-2

0 1
C       0.000000     0.000000     0.669434
C       0.000000     0.000000    -0.669434
Cl      0.000000     1.453437     1.594396
Cl     -0.000000    -1.453437     1.594396
Cl     -0.000000    -1.453437    -1.594396
Cl      0.000000     1.453437    -1.594396

@pcseg2.gbs

--Link1--
%chk=c2cl4.chk
%mem=500mw
%nprocs=4
# rohf/gen geom=check guess=check

tetrachloroethylene, ROHF/cc-pVTZ-F12

0 1

@ccpvtz-f12.gbs
