%chk=c2f4.chk
%mem=500mw
%nprocs=4
# b3lyp/gen opt freq CPHF(Grid=OneStep)

C2F4, B3LYP/pcseg-2

0 1
C       0.000000     0.000000     0.660250
C       0.000000     0.000000    -0.660250
F       0.000000     1.100857     1.387445
F      -0.000000    -1.100857     1.387445
F       0.000000     1.100857    -1.387445
F      -0.000000    -1.100857    -1.387445

@pcseg2.gbs

--Link1--
%chk=c2f4.chk
%mem=500mw
%nprocs=4
# rohf/gen geom=check guess=check

C2F4, ROHF/cc-pVTZ-F12

0 1

@ccpvtz-f12.gbs
