%chk=c2f6.chk
%mem=500mw
%nprocs=4
# b3lyp/gen opt freq CPHF(Grid=OneStep)

hexafluoroethane, B3LYP/pcseg-2

0 1
C       0.000000     0.000000     0.778930
C      -0.000000    -0.000000    -0.778930
F       0.000000     1.254610     1.231444
F      -1.086524    -0.627305     1.231444
F       1.086524    -0.627305     1.231444
F      -0.000000    -1.254610    -1.231444
F      -1.086524     0.627305    -1.231444
F       1.086524     0.627305    -1.231444

@pcseg2.gbs

--Link1--
%chk=c2f6.chk
%mem=500mw
%nprocs=4
# rohf/gen geom=check guess=check

hexafluoroethane, ROHF/cc-pVTZ-F12

0 1

@ccpvtz-f12.gbs
