%mem=1000mw
%nprocs=12
# b3lyp/gen opt freq

cyclopropenylidene, B3LYP/pcseg-2

0 1
C          0.000000       0.892518       0.000000
C         -0.661080      -0.369211       0.000000
C          0.661080      -0.369211       0.000000
H         -1.590509      -0.917401       0.000000
H          1.590509      -0.917401       0.000000

@pcseg2.gbs

