%chk=c2h2.chk
%mem=500mw
%nprocs=4
# b3lyp/gen opt freq CPHF(Grid=OneStep)

Acetylene, B3LYP/pcseg-2

0 1
H       0.000000     0.000000     1.660043
C       0.000000     0.000000     0.598175
C       0.000000     0.000000    -0.598175
H       0.000000     0.000000    -1.660043

@pcseg2.gbs

--Link1--
%chk=c2h2.chk
%mem=500mw
%nprocs=4
# rohf/gen geom=check guess=check

Acetylene, ROHF/cc-pVTZ-F12

0 1

@ccpvtz-f12.gbs
