%mem=1000mw
%nprocs=12
# b3lyp/gen opt freq

vinyl alcohol, B3LYP/pcseg-2

0 1
C	1.2136240	-0.1008970	0.0000000
C	0.0000000	0.4401640	0.0000000
O	-1.1925950	-0.2170450	0.0000000
H	1.3721420	-1.1736460	0.0000000
H	2.0872080	0.5341150	0.0000000
H	-0.1613590	1.5109990	0.0000000
H	-1.0389740	-1.1707060	0.0000000

@pcseg2.gbs

