%chk=c2h3cch.chk
%mem=500mw
%nprocs=4
# b3lyp/gen opt freq CPHF(Grid=OneStep)

vinyl acetylene, B3LYP/pcseg-2

0 1
C       0.576384    -0.555306    -0.000000
C      -0.000000     0.742709     0.000000
C      -0.119928    -1.693466    -0.000000
C      -0.453062     1.856624     0.000000
H       1.660826    -0.591384     0.000000
H       0.383206    -2.649891    -0.000000
H      -1.201047    -1.697506    -0.000000
H      -0.863348     2.835414     0.000000

@pcseg2.gbs

--Link1--
%chk=c2h3cch.chk
%mem=500mw
%nprocs=4
# rohf/gen geom=check guess=check

vinyl acetylene, ROHF/cc-pVTZ-F12

0 1

@ccpvtz-f12.gbs
