%chk=c2h3cn.chk
%mem=500mw
%nprocs=4
# b3lyp/gen opt freq CPHF(Grid=OneStep)

acrylonitrile, B3LYP/pcseg-2

0 1
C      -0.575659    -0.536323     0.000000
N      -1.064660    -1.579643     0.000000
C       0.000000     0.768655    -0.000000
H      -0.703985     1.591366    -0.000000
C       1.313485     0.984910    -0.000000
H       2.024420     0.170965    -0.000000
H       1.705231     1.991718    -0.000000

@pcseg2.gbs

--Link1--
%chk=c2h3cn.chk
%mem=500mw
%nprocs=4
# rohf/gen geom=check guess=check

acrylonitrile, ROHF/cc-pVTZ-F12

0 1

@ccpvtz-f12.gbs
