%chk=c2h3.chk
%mem=500mw
%nprocs=4
# b3lyp/gen opt freq CPHF(Grid=OneStep)

vinyl, B3LYP/pcseg-2

0 2
C       0.048036     0.717034     0.000000
C       0.048036    -0.584152     0.000000
H      -0.661561     1.528307     0.000000
H      -0.879450    -1.159568     0.000000
H       0.964580    -1.166033     0.000000

@pcseg2.gbs

--Link1--
%chk=c2h3.chk
%mem=500mw
%nprocs=4
# rohf/gen geom=check guess=check

vinyl, ROHF/cc-pVTZ-F12

0 2

@ccpvtz-f12.gbs
