%chk=c2h3o.chk
%mem=500mw
%nprocs=4
# b3lyp/gen opt freq CPHF(Grid=OneStep)

vinoxyl, B3LYP/pcseg-2

0 2
C       0.000000     0.426302     0.000000
H       0.287566     1.491330     0.000000
C       1.055248    -0.523636     0.000000
O      -1.191126     0.110050     0.000000
H       2.089527    -0.208810     0.000000
H       0.820430    -1.578917     0.000000

@pcseg2.gbs

--Link1--
%chk=c2h3o.chk
%mem=500mw
%nprocs=4
# rohf/gen geom=check guess=check

vinoxyl, ROHF/cc-pVTZ-F12

0 2

@ccpvtz-f12.gbs
