%chk=c2h4cl2.chk
%mem=500mw
%nprocs=4
# b3lyp/gen opt freq CPHF(Grid=OneStep)

1,1-dichloroethane, B3LYP/pcseg-2

0 1
C       0.209725     0.504599     0.000000
C      -0.965865     1.451721     0.000000
H       1.163478     1.017889    -0.000000
Cl      0.209725    -0.524171     1.477961
Cl      0.209725    -0.524171    -1.477961
H      -1.903502     0.900080     0.000000
H      -0.926898     2.082965     0.887097
H      -0.926898     2.082965    -0.887097

@pcseg2.gbs

--Link1--
%chk=c2h4cl2.chk
%mem=500mw
%nprocs=4
# rohf/gen geom=check guess=check

1,1-dichloroethane, ROHF/cc-pVTZ-F12

0 1

@ccpvtz-f12.gbs
