%mem=1000mw
%nprocs=12
# b3lyp/gen opt freq

1,1-dichloroethane, B3LYP/pcseg-2

0 1
C	0.0000000	0.5476050	0.0000000
C	-1.4552460	0.9668460	0.0000000
H	0.6848470	1.3921580	0.0000000
Cl	0.3964460	-0.4029730	1.4792320
Cl	0.3964460	-0.4029730	-1.4792320
H	-2.1067170	0.0908650	0.0000000
H	-1.6629160	1.5656660	0.8910320
H	-1.6629160	1.5656660	-0.8910320

@pcseg2.gbs

