%mem=500mw
%nprocs=4
# b3lyp/gen opt freq 

chloroethane, B3LYP/pcseg-2

0 1
C	1.5071230	0.6748100	0.0000000
C	0.0000000	0.8163520	0.0000000
H	1.9641340	1.6671800	0.0000000
H	1.8522560	0.1394840	0.8835120
H	1.8522560	0.1394840	-0.8835120
Cl	-0.8228020	-0.7976340	0.0000000
H	-0.3618720	1.3333270	0.8846780
H	-0.3618720	1.3333270	-0.8846780

@pcseg2.gbs

