%chk=c2h5cho.chk
%mem=500mw
%nprocs=4
# b3lyp/gen opt freq CPHF(Grid=OneStep)

propanal, B3LYP/pcseg-2

0 1
C       1.458806     0.471267     0.000000
C       0.000000     0.905386     0.000000
C      -0.996340    -0.223646     0.000000
O      -0.716628    -1.394430     0.000000
H       2.117820     1.338877     0.000000
H       1.686690    -0.132781     0.877158
H       1.686690    -0.132781    -0.877158
H      -0.236850     1.533316     0.867216
H      -0.236850     1.533316    -0.867216
H      -2.059277     0.097447     0.000000

@pcseg2.gbs

--Link1--
%chk=c2h5cho.chk
%mem=500mw
%nprocs=4
# rohf/gen geom=check guess=check

propanal, ROHF/cc-pVTZ-F12

0 1

@ccpvtz-f12.gbs
