%mem=500mw
%nprocs=4
# b3lyp/gen opt freq

ethoxyl, B3LYP/pcseg-2

0 2
C     1.042494   -0.601705   -0.020000
C     0.000000    0.507854    0.110000
O    -1.302506    0.103913   -0.055000
H     2.051193   -0.184996   -0.180000
H     1.074962   -1.175441    0.927985
H     0.784962   -1.285441   -0.837985
H     0.306984    1.373839    0.772703
H    -0.053016    1.003839   -0.952703

@/home/irikura/basis/pcseg2.gbs

