%chk=c2h5cl.chk
%mem=500mw
%nprocs=4
# b3lyp/gen opt freq CPHF(Grid=OneStep)

chloroethane, B3LYP/pcseg-2

0 1
C       1.506625     0.676759     0.000000
C       0.000000     0.817452     0.000000
H       1.963242     1.669132     0.000000
H       1.851575     0.141540     0.883433
H       1.851575     0.141540    -0.883433
Cl     -0.822562    -0.799228     0.000000
H      -0.361297     1.334701     0.884366
H      -0.361297     1.334701    -0.884366

@pcseg2.gbs

--Link1--
%chk=c2h5cl.chk
%mem=500mw
%nprocs=4
# rohf/gen geom=check guess=check

chloroethane, ROHF/cc-pVTZ-F12

0 1

@ccpvtz-f12.gbs
