%mem=1000mw
%nprocs=12
# b3lyp/gen opt freq

propanoic acid, B3LYP/pcseg-2

0 1
C	0.0000000	0.5726680	0.0000000
C	-0.5900600	-0.8167800	0.0000000
C	0.4604970	-1.9201220	0.0000000
O	-0.9701390	1.5238920	0.0000000
O	1.1722910	0.8495140	0.0000000
H	-1.2487590	-0.8909560	0.8703080
H	-1.2487590	-0.8909560	-0.8703080
H	-0.0213600	-2.8990500	0.0000000
H	1.1019630	-1.8532810	-0.8791040
H	1.1019630	-1.8532810	0.8791040
H	-0.5248850	2.3856820	0.0000000

@pcseg2.gbs

