%chk=c2h5nh2.chk
%mem=500mw
%nprocs=4
# b3lyp/gen opt freq CPHF(Grid=OneStep)

ethylamine, B3LYP/pcseg-2

0 1
N      -1.306366    -0.088356     0.000000
C       0.000000     0.571429     0.000000
C       1.217543    -0.354028     0.000000
H       2.148887     0.217015     0.000000
H       1.219796    -0.997483     0.882358
H       1.219796    -0.997483    -0.882358
H       0.037861     1.227234    -0.872439
H       0.037861     1.227234     0.872439
H      -1.412448    -0.681214     0.813970
H      -1.412448    -0.681214    -0.813970

@pcseg2.gbs

--Link1--
%chk=c2h5nh2.chk
%mem=500mw
%nprocs=4
# rohf/gen geom=check guess=check

ethylamine, ROHF/cc-pVTZ-F12

0 1

@ccpvtz-f12.gbs
