%chk=c2h5f.chk
%mem=500mw
%nprocs=4
# b3lyp/gen opt freq CPHF(Grid=OneStep)

fluoroethane, B3LYP/pcseg-2

0 1
C       0.000000     0.557149     0.000000
C       1.130960    -0.443016     0.000000
F      -1.231867    -0.110527     0.000000
H       0.019061     1.191035     0.887891
H       0.019061     1.191035    -0.887891
H       2.088028     0.081673     0.000000
H       1.087443    -1.076896     0.885149
H       1.087443    -1.076896    -0.885149

@pcseg2.gbs

--Link1--
%chk=c2h5f.chk
%mem=500mw
%nprocs=4
# rohf/gen geom=check guess=check

fluoroethane, ROHF/cc-pVTZ-F12

0 1

@ccpvtz-f12.gbs
