%mem=1000mw
%nprocs=12
# b3lyp/gen opt freq

propanal, B3LYP/pcseg-2

0 1
C	1.4568640	0.4584310	0.0000000
C	0.0000000	0.9130710	0.0000000
C	-0.9993490	-0.2199680	0.0000000
O	-0.7120680	-1.3898140	0.0000000
H	2.1328690	1.3175140	0.0000000
H	1.6732670	-0.1527240	0.8799840
H	1.6732670	-0.1527240	-0.8799840
H	-0.2311460	1.5455870	0.8701190
H	-0.2311460	1.5455870	-0.8701190
H	-2.0656550	0.1060700	0.0000000

@pcseg2.gbs

