%chk=c2h5o.chk
%mem=500mw
%nprocs=4
# b3lyp/gen opt freq CPHF(Grid=OneStep)

ethoxyl, B3LYP/pcseg-2

0 2
C      -1.187900    -0.194366     0.000037
C       0.179755     0.474585    -0.000382
O       1.255112    -0.362980    -0.000366
H      -1.983573     0.552754     0.002771
H      -1.306876    -0.819920    -0.884502
H      -1.304097    -0.824480     0.881587
H       0.300077     1.160436    -0.860270
H       0.302438     1.153736     0.865411

@pcseg2.gbs

--Link1--
%chk=c2h5o.chk
%mem=500mw
%nprocs=4
# rohf/gen geom=check guess=check

ethoxyl, ROHF/cc-pVTZ-F12

0 2

@ccpvtz-f12.gbs
