%chk=c2h6.chk
%mem=500mw
%nprocs=4
# b3lyp/gen opt freq CPHF(Grid=OneStep)

Ethane, B3LYP/pcseg-2

0 1
C       0.000000     0.000000     0.763490
C      -0.000000    -0.000000    -0.763490
H       0.000000     1.015934     1.160920
H      -0.879825    -0.507967     1.160920
H       0.879825    -0.507967     1.160920
H      -0.000000    -1.015934    -1.160920
H      -0.879825     0.507967    -1.160920
H       0.879825     0.507967    -1.160920

@pcseg2.gbs

--Link1--
%chk=c2h6.chk
%mem=500mw
%nprocs=4
# rohf/gen geom=check guess=check

Ethane, ROHF/cc-pVTZ-F12

0 1

@ccpvtz-f12.gbs
