%chk=c2hcl5.chk
%mem=500mw
%nprocs=4
# b3lyp/gen opt freq CPHF(Grid=OneStep)

pentachloroethane, B3LYP/pcseg-2

0 1
C       0.092893    -0.612102    -0.000000
C      -0.700970     0.724375     0.000000
H      -1.756452     0.478441     0.000000
Cl     -0.383020     1.693579     1.461383
Cl     -0.383020     1.693579    -1.461383
Cl      1.850018    -0.349177    -0.000000
Cl     -0.383020    -1.552875     1.449865
Cl     -0.383020    -1.552875    -1.449865

@pcseg2.gbs

--Link1--
%chk=c2hcl5.chk
%mem=500mw
%nprocs=4
# rohf/gen geom=check guess=check

pentachloroethane, ROHF/cc-pVTZ-F12

0 1

@ccpvtz-f12.gbs
