%mem=1000mw
%nprocs=12
# b3lyp/gen opt freq

pentachloroethane, B3LYP/pcseg-2

0 1
C	0.0900970	-0.6090700	0.0000000
C	-0.7045090	0.7168200	0.0000000
H	-1.7573260	0.4689600	0.0000000
Cl	-0.3794620	1.6781470	1.4561770
Cl	-0.3794620	1.6781470	-1.4561770
Cl	1.8380710	-0.3324400	0.0000000
Cl	-0.3794620	-1.5447340	1.4448700
Cl	-0.3794620	-1.5447340	-1.4448700

@pcseg2.gbs

