%chk=c2o4h2.chk
%mem=500mw
%nprocs=4
# b3lyp/gen opt freq CPHF(Grid=OneStep)

oxalic acid, B3LYP/pcseg-2

0 1
C      -0.054233     0.770744     0.000000
C       0.054233    -0.770744     0.000000
O       1.120834     1.379325     0.000000
O      -1.120834    -1.379325     0.000000
O      -1.120834     1.321991     0.000000
O       1.120834    -1.321991     0.000000
H       1.809865     0.691336     0.000000
H      -1.809865    -0.691336     0.000000

@pcseg2.gbs

--Link1--
%chk=c2o4h2.chk
%mem=500mw
%nprocs=4
# rohf/gen geom=check guess=check

oxalic acid, ROHF/cc-pVTZ-F12

0 1

@ccpvtz-f12.gbs
