%chk=c3h5.chk
%mem=500mw
%nprocs=4
# b3lyp/gen opt freq CPHF(Grid=OneStep)

allyl, B3LYP/pcseg-2

0 2
C       0.000000     0.000000     0.440851
H       0.000000     0.000000     1.526519
C      -0.000000     1.224165    -0.195286
C      -0.000000    -1.224165    -0.195286
H       0.000000     2.149470     0.361167
H      -0.000000    -2.149470     0.361167
H      -0.000000     1.292840    -1.275260
H      -0.000000    -1.292840    -1.275260

@pcseg2.gbs

--Link1--
%chk=c3h5.chk
%mem=500mw
%nprocs=4
# rohf/gen geom=check guess=check

allyl, ROHF/cc-pVTZ-F12

0 2

@ccpvtz-f12.gbs
