%mem=1000mw
%nprocs=12
# b3lyp/gen opt freq

allyl, B3LYP/pcseg-2

0 2
C	0.0000000	0.0000000	0.4408830
H	0.0000000	0.0000000	1.5299720
C	0.0000000	1.2274980	-0.1951010
C	0.0000000	-1.2274980	-0.1951010
H	0.0000000	2.1568300	0.3612320
H	0.0000000	-2.1568300	0.3612320
H	0.0000000	1.2970740	-1.2782600
H	0.0000000	-1.2970740	-1.2782600

@pcseg2.gbs

