%chk=c3h8.chk
%mem=500mw
%nprocs=4
# b3lyp/gen opt freq CPHF(Grid=OneStep)

Propane, B3LYP/pcseg-2

0 1
C      -0.000000     0.000000     0.584703
C       0.000000     1.274055    -0.259160
C      -0.000000    -1.274055    -0.259160
H       0.873493    -0.000000     1.242062
H      -0.873493     0.000000     1.242062
H       0.000000     2.168464     0.365468
H      -0.000000    -2.168464     0.365468
H       0.880680     1.318697    -0.903339
H      -0.880680     1.318697    -0.903339
H      -0.880680    -1.318697    -0.903339
H       0.880680    -1.318697    -0.903339

@pcseg2.gbs

--Link1--
%chk=c3h8.chk
%mem=500mw
%nprocs=4
# rohf/gen geom=check guess=check

Propane, ROHF/cc-pVTZ-F12

0 1

@ccpvtz-f12.gbs
