%mem=1000mw
%nprocs=12
# b3lyp/gen opt freq

cyclopentadienyl, B3LYP/pcseg-2

0 2
C	0.0000000	0.0000000	1.2239140
C	0.0000000	1.1231130	0.3934720
C	0.0000000	0.6783740	-1.0058750
C	0.0000000	-0.6783740	-1.0058750
C	0.0000000	-1.1231130	0.3934720
H	0.0000000	0.0000000	2.3035370
H	0.0000000	2.1574430	0.7144760
H	0.0000000	1.3357980	-1.8635710
H	0.0000000	-1.3357980	-1.8635710
H	0.0000000	-2.1574430	0.7144760

@pcseg2.gbs

