%chk=c5h5.chk
%mem=500mw
%nprocs=4
# b3lyp/gen opt freq CPHF(Grid=OneStep)

cyclopentadienyl, B3LYP/pcseg-2

0 2
C      -0.000000     0.000000     1.221136
C      -0.000000     1.121674     0.392800
C      -0.000000     0.677320    -1.003766
C      -0.000000    -0.677320    -1.003766
C      -0.000000    -1.121674     0.392800
H      -0.000000     0.000000     2.298017
H      -0.000000     2.152515     0.713930
H      -0.000000     1.331255    -1.860550
H      -0.000000    -1.331255    -1.860550
H      -0.000000    -2.152515     0.713930

@pcseg2.gbs

--Link1--
%chk=c5h5.chk
%mem=500mw
%nprocs=4
# rohf/gen geom=check guess=check

cyclopentadienyl, ROHF/cc-pVTZ-F12

0 2

@ccpvtz-f12.gbs
