%mem=1000mw
%nprocs=12
# b3lyp/gen opt freq

phenyl, B3LYP/pcseg-2

0 2
C	0.0000000	0.0000000	1.3955100
C	0.0000000	1.2241890	0.7703030
C	0.0000000	-1.2241890	0.7703030
C	0.0000000	1.2116870	-0.6311090
C	0.0000000	-1.2116870	-0.6311090
C	0.0000000	0.0000000	-1.3210560
H	0.0000000	2.1585810	1.3218160
H	0.0000000	-2.1585810	1.3218160
H	0.0000000	2.1504530	-1.1773470
H	0.0000000	-2.1504530	-1.1773470
H	0.0000000	0.0000000	-2.4059940

@pcseg2.gbs

