%mem=1000mw
%nprocs=12
# b3lyp/gen opt freq CPHF(Grid=OneStep)

difluorovinylidene, B3LYP/pcseg-2

0 1
C          0.000000      -0.179511       0.000000
C          0.000000      -1.524700       0.000000
F          1.096627       0.538217       0.000000
F         -1.096627       0.538217       0.000000

@pcseg2.gbs

