%chk=ccl2o.chk
%mem=500mw
%nprocs=4
# b3lyp/gen opt freq CPHF(Grid=OneStep)

phosgene, B3LYP/pcseg-2

0 1
O      -0.000000     0.000000     1.674462
C      -0.000000     0.000000     0.501776
Cl      0.000000     1.457033    -0.482540
Cl     -0.000000    -1.457033    -0.482540

@pcseg2.gbs

--Link1--
%chk=ccl2o.chk
%mem=500mw
%nprocs=4
# rohf/gen geom=check guess=check

phosgene, ROHF/cc-pVTZ-F12

0 1

@ccpvtz-f12.gbs
