%chk=ccl3.chk
%mem=500mw
%nprocs=4
# b3lyp/gen opt freq CPHF(Grid=OneStep)

trichloromethyl, B3LYP/pcseg-2

0 2
C       0.000000     0.000000     0.266396
Cl      0.000000     1.693980    -0.031341
Cl      1.467030    -0.846990    -0.031341
Cl     -1.467030    -0.846990    -0.031341

@pcseg2.gbs

--Link1--
%chk=ccl3.chk
%mem=500mw
%nprocs=4
# rohf/gen geom=check guess=check

trichloromethyl, ROHF/cc-pVTZ-F12

0 2

@ccpvtz-f12.gbs
