%chk=cf.chk
%mem=500mw
%nprocs=4
# b3lyp/gen opt freq CPHF(Grid=OneStep)

fluoromethylidyne, B3LYP/pcseg-2

0 2
C       0.000000     0.000000    -0.765353
F       0.000000     0.000000     0.510236

@pcseg2.gbs

--Link1--
%chk=cf.chk
%mem=500mw
%nprocs=4
# rohf/gen geom=check guess=check

fluoromethylidyne, ROHF/cc-pVTZ-F12

0 2

@ccpvtz-f12.gbs
