%chk=cf2cl2.chk
%mem=500mw
%nprocs=4
# b3lyp/gen opt freq CPHF(Grid=OneStep)

dichlorodifluoromethane, B3LYP/pcseg-2

0 1
C      -0.000000    -0.000000     0.340381
F       0.000000     1.078867     1.125763
F      -0.000000    -1.078867     1.125763
Cl      1.471240    -0.000000    -0.656059
Cl     -1.471240     0.000000    -0.656059

@pcseg2.gbs

--Link1--
%chk=cf2cl2.chk
%mem=500mw
%nprocs=4
# rohf/gen geom=check guess=check

dichlorodifluoromethane, ROHF/cc-pVTZ-F12

0 1

@ccpvtz-f12.gbs
