%chk=cf3cl.chk
%mem=500mw
%nprocs=4
# b3lyp/gen opt freq CPHF(Grid=OneStep)

CF3Cl, B3LYP/pcseg-2

0 1
C       0.000000     0.000000    -0.353120
Cl      0.000000     0.000000     1.418259
F       0.000000     1.247889    -0.814507
F       1.080704    -0.623945    -0.814507
F      -1.080704    -0.623945    -0.814507

@pcseg2.gbs

--Link1--
%chk=cf3cl.chk
%mem=500mw
%nprocs=4
# rohf/gen geom=check guess=check

CF3Cl, ROHF/cc-pVTZ-F12

0 1

@ccpvtz-f12.gbs
