%chk=ch2ccl2.chk
%mem=500mw
%nprocs=4
# b3lyp/gen opt freq CPHF(Grid=OneStep)

1,1-dichloroethylene, B3LYP/pcseg-2

0 1
C      -0.000000     0.000000     1.745600
C      -0.000000     0.000000     0.424094
H       0.000000     0.929475     2.293358
H      -0.000000    -0.929475     2.293358
Cl      0.000000     1.457469    -0.517791
Cl     -0.000000    -1.457469    -0.517791

@pcseg2.gbs

--Link1--
%chk=ch2ccl2.chk
%mem=500mw
%nprocs=4
# rohf/gen geom=check guess=check

1,1-dichloroethylene, ROHF/cc-pVTZ-F12

0 1

@ccpvtz-f12.gbs
