%mem=1000mw
%nprocs=12
# b3lyp/gen opt freq

cyanomethyl, B3LYP/pcseg-2

0 2
C          0.099595       0.000000       0.000000
N          1.271534       0.000000       0.000000
C         -1.277101       0.000000       0.000000
H         -1.823393       0.934482       0.000000
H         -1.823393      -0.934482       0.000000

@pcseg2.gbs

