%chk=ch2cooh.chk
%mem=500mw
%nprocs=4
# b3lyp/gen opt freq CPHF(Grid=OneStep)

carboxymethyl, B3LYP/pcseg-2

0 2
C       1.331853    -0.438529    -0.000000
C      -0.000000     0.110986     0.000000
O      -0.261160     1.297891     0.000000
O      -0.967855    -0.846524     0.000000
H      -1.818218    -0.386910     0.000000
H       2.164095     0.245676    -0.000000
H       1.495127    -1.504444    -0.000000

@pcseg2.gbs

--Link1--
%chk=ch2cooh.chk
%mem=500mw
%nprocs=4
# rohf/gen geom=check guess=check

carboxymethyl, ROHF/cc-pVTZ-F12

0 2

@ccpvtz-f12.gbs
