%chk=ch2chccchch2.chk
%mem=500mw
%nprocs=4
# b3lyp/gen opt=cart freq CPHF(Grid=OneStep)

cis-divinylacetylene, B3LYP/pcseg-2

0 1
C      -0.000000     0.604528    -0.384314
C      -0.000000    -0.604528    -0.384314
C      -0.000000     2.019103    -0.416413
C      -0.000000    -2.019103    -0.416413
C      -0.000000     2.807415     0.663378
C      -0.000000    -2.807415     0.663378
H      -0.000000     3.883287     0.562885
H      -0.000000    -3.883287     0.562885
H      -0.000000     2.398443     1.664035
H      -0.000000    -2.398443     1.664035
H      -0.000000     2.471905    -1.402827
H      -0.000000    -2.471905    -1.402827

@pcseg2.gbs

--Link1--
%chk=ch2chccchch2.chk
%mem=500mw
%nprocs=4
# rohf/gen geom=check guess=check

cis-divinylacetylene, ROHF/cc-pVTZ-F12

0 1

@ccpvtz-f12.gbs
