%chk=ch2chchchcch.chk
%mem=500mw
%nprocs=4
# b3lyp/gen opt freq CPHF(Grid=OneStep)

butadienylacetylene, B3LYP/pcseg-2

0 1
C      -0.252958    -0.846722    -0.000000
C       0.000000     0.475495     0.000000
C       0.741284    -1.851930     0.000000
C       1.562512    -2.732028     0.000000
H       2.292974    -3.501778     0.000000
H      -1.283221    -1.188953    -0.000000
H       1.029994     0.814732     0.000000
C      -1.030467     1.488795    -0.000000
C      -0.789047     2.803178    -0.000000
H      -2.057349     1.136788    -0.000000
H       0.221478     3.192023     0.000000
H      -1.591819     3.526461    -0.000000

@pcseg2.gbs

--Link1--
%chk=ch2chchchcch.chk
%mem=500mw
%nprocs=4
# rohf/gen geom=check guess=check

butadienylacetylene, ROHF/cc-pVTZ-F12

0 1

@ccpvtz-f12.gbs
