%mem=1000mw
%nprocs=12
# b3lyp/gen opt freq

isocyanoethylene, B3LYP/pcseg-2

0 1
C         -1.641214      -0.353645       0.000000
C         -0.608601       0.484684       0.000000
N          0.703051       0.071535       0.000000
H         -2.652225       0.033167       0.000000
H         -1.503550      -1.427824       0.000000
H         -0.734051       1.562673       0.000000
C          1.840083      -0.228626       0.000000

@pcseg2.gbs

