%mem=1000mw
%nprocs=12
# b3lyp/gen opt freq

1,2,3,5-hexatetraene, B3LYP/pcseg-2

0 1
C         -3.141312      -0.258841       0.000000
C         -1.855312       0.017093       0.000000
C         -0.622483       0.281297       0.000000
C          0.671908       0.564166       0.000000
C          1.729939      -0.427669       0.000000
C          3.034499      -0.125328       0.000000
H         -3.502938      -1.282965       0.000000
H         -3.890887       0.527184       0.000000
H          0.980578       1.609891       0.000000
H          3.378681       0.904588       0.000000
H          3.797272      -0.895033       0.000000
H          1.413392      -1.467545       0.000000

@pcseg2.gbs

