%chk=ch2ch2oh.chk
%mem=500mw
%nprocs=4
# b3lyp/gen opt freq CPHF(Grid=OneStep)

2-hydroxyethyl, B3LYP/pcseg-2

0 2
C      -1.234655    -0.270301    -0.008195
C       0.005282     0.537459     0.031825
O       1.194319    -0.255444     0.042054
H       1.158509    -0.857204    -0.707044
H      -1.291467    -1.190591     0.556355
H      -2.129100     0.103627    -0.485110
H       0.022085     1.255943    -0.796800
H       0.061667     1.128828     0.954388

@pcseg2.gbs

--Link1--
%chk=ch2ch2oh.chk
%mem=500mw
%nprocs=4
# rohf/gen geom=check guess=check

2-hydroxyethyl, ROHF/cc-pVTZ-F12

0 2

@ccpvtz-f12.gbs
