%chk=ch2clch2cl.chk
%mem=500mw
%nprocs=4
# b3lyp/gen opt freq CPHF(Grid=OneStep)

1,2-dichloroethane, B3LYP/pcseg-2

0 1
C       0.475325     0.587726     0.000000
C      -0.475325    -0.587726     0.000000
Cl     -0.475325     2.125363     0.000000
Cl      0.475325    -2.125363     0.000000
H       1.099705     0.597185     0.887561
H       1.099705     0.597185    -0.887561
H      -1.099705    -0.597185     0.887561
H      -1.099705    -0.597185    -0.887561

@pcseg2.gbs

--Link1--
%chk=ch2clch2cl.chk
%mem=500mw
%nprocs=4
# rohf/gen geom=check guess=check

1,2-dichloroethane, ROHF/cc-pVTZ-F12

0 1

@ccpvtz-f12.gbs
