%mem=1000mw
%nprocs=12
# b3lyp/gen opt freq

1,2-dichloroethane, B3LYP/pcseg-2

0 1
C	0.4752530	0.5880040	0.0000000
C	-0.4752530	-0.5880040	0.0000000
Cl	-0.4752530	2.1231530	0.0000000
Cl	0.4752530	-2.1231530	0.0000000
H	1.0997160	0.5990790	0.8879830
H	1.0997160	0.5990790	-0.8879830
H	-1.0997160	-0.5990790	0.8879830
H	-1.0997160	-0.5990790	-0.8879830

@pcseg2.gbs

