%chk=ch2cchcl.chk
%mem=500mw
%nprocs=4
# b3lyp/gen opt freq CPHF(Grid=OneStep)

chloroallene, B3LYP/pcseg-2

0 1
C       1.142451     0.104794     0.000000
C       2.293728    -0.497716     0.000000
C       0.000000     0.717389     0.000000
H       2.794229    -0.758771     0.925042
H       2.794229    -0.758771    -0.925042
H      -0.105266     1.791424     0.000000
Cl     -1.535310    -0.130628     0.000000

@pcseg2.gbs

--Link1--
%chk=ch2cchcl.chk
%mem=500mw
%nprocs=4
# rohf/gen geom=check guess=check

chloroallene, ROHF/cc-pVTZ-F12

0 1

@ccpvtz-f12.gbs
