%mem=1000mw
%nprocs=12
# b3lyp/gen opt freq

1,1,2-trichloroethane, B3LYP/pcseg-2

0 1
C	0.6663840	-0.8304950	0.4005770
C	-0.4102580	-0.0792440	-0.3577140
Cl	2.3079500	-0.3003210	-0.0934330
H	0.5694240	-0.6711520	1.4700560
H	0.5924960	-1.8899320	0.1737820
Cl	-1.9877580	-0.8690710	-0.0149040
Cl	-0.4634960	1.6486800	0.0806420
H	-0.2625130	-0.1283970	-1.4302120

@pcseg2.gbs

