%mem=1000mw
%nprocs=12
# b3lyp/gen opt(cart,calcfc) freq

cis-divinylacetylene, B3LYP/pcseg-2

0 1
C          0.605951       0.360691       0.000000
C         -0.605951       0.360691       0.000000
C          2.019268       0.395871       0.000000
C         -2.019268       0.395871       0.000000
C          2.813572      -0.682544       0.000000
C         -2.813572      -0.682544       0.000000
H          3.892622      -0.580249       0.000000
H         -3.892622      -0.580249       0.000000
H          2.408363      -1.687976       0.000000
H         -2.408363      -1.687976       0.000000
H          2.470381       1.386893       0.000000
H         -2.470381       1.386893       0.000000

@pcseg2.gbs

