%mem=1000mw
%nprocs=12
# b3lyp/gen opt freq

2-hydroxyethyl, B3LYP/pcseg-2

0 2
C         -1.280508      -0.273541      -0.006794
C         -0.041736       0.546861       0.018278
O          1.146751      -0.235657       0.022075
H          1.087576      -0.839707      -0.725580
H         -1.315176      -1.201183       0.554372
H         -2.197978       0.107281      -0.440195
H         -0.047317       1.269529      -0.815362
H          0.016865       1.149743       0.939687

@pcseg2.gbs

