%chk=ch2f2.chk
%mem=500mw
%nprocs=4
# b3lyp/gen opt freq CPHF(Grid=OneStep)

CH2F2, B3LYP/pcseg-2

0 1
C      -0.000000    -0.000000     0.504737
H      -0.910364     0.000000     1.103456
H       0.910364    -0.000000     1.103456
F       0.000000     1.105884    -0.290852
F      -0.000000    -1.105884    -0.290852

@pcseg2.gbs

--Link1--
%chk=ch2f2.chk
%mem=500mw
%nprocs=4
# rohf/gen geom=check guess=check

CH2F2, ROHF/cc-pVTZ-F12

0 1

@ccpvtz-f12.gbs
