%mem=1000mw
%nprocs=12
# b3lyp/gen opt freq

1,2-difluoroethane, B3LYP/pcseg-2

0 1
C	0.2686130	0.7024200	0.5079100
C	-0.2686130	-0.7024200	0.5079100
F	-0.2686130	1.4427040	-0.5434370
F	0.2686130	-1.4427040	-0.5434370
H	-0.0068410	1.1973330	1.4441010
H	1.3553180	0.7008020	0.3993720
H	0.0068410	-1.1973330	1.4441010
H	-1.3553180	-0.7008020	0.3993720

@pcseg2.gbs

