%chk=ch2fch2f.chk
%mem=500mw
%nprocs=4
# b3lyp/gen opt freq CPHF(Grid=OneStep)

1,2-difluoroethane, B3LYP/pcseg-2

0 1
C       0.268568     0.701720     0.508501
C      -0.268568    -0.701720     0.508501
F      -0.268568     1.438141    -0.543323
F       0.268568    -1.438141    -0.543323
H      -0.005957     1.198935     1.441813
H       1.353622     0.702530     0.397089
H       0.005957    -1.198935     1.441813
H      -1.353622    -0.702530     0.397089

@pcseg2.gbs

--Link1--
%chk=ch2fch2f.chk
%mem=500mw
%nprocs=4
# rohf/gen geom=check guess=check

1,2-difluoroethane, ROHF/cc-pVTZ-F12

0 1

@ccpvtz-f12.gbs
