%chk=ch2noh.chk
%mem=500mw
%nprocs=4
# b3lyp/gen opt freq CPHF(Grid=OneStep)

formaldoxime, B3LYP/pcseg-2

0 1
C       1.138101    -0.019390     0.000000
N      -0.000000     0.532288     0.000000
O      -1.033540    -0.410622    -0.000000
H       1.995192     0.639157     0.000000
H       1.270442    -1.098042     0.000000
H      -1.825919     0.134185    -0.000000

@pcseg2.gbs

--Link1--
%chk=ch2noh.chk
%mem=500mw
%nprocs=4
# rohf/gen geom=check guess=check

formaldoxime, ROHF/cc-pVTZ-F12

0 1

@ccpvtz-f12.gbs
