%chk=ch2nh.chk
%mem=500mw
%nprocs=4
# b3lyp/gen opt freq CPHF(Grid=OneStep)

methanimine, B3LYP/pcseg-2

0 1
C       0.055913     0.582836     0.000000
N       0.055913    -0.680350     0.000000
H      -0.841768     1.207668     0.000000
H       1.008845     1.110077     0.000000
H      -0.893952    -1.052310     0.000000

@pcseg2.gbs

--Link1--
%chk=ch2nh.chk
%mem=500mw
%nprocs=4
# rohf/gen geom=check guess=check

methanimine, ROHF/cc-pVTZ-F12

0 1

@ccpvtz-f12.gbs
