%mem=1000mw
%nprocs=12
# b3lyp/gen opt freq

nitrosomethyl, B3LYP/pcseg-2

0 2
N         -0.007834       0.329477       0.000000
C         -1.194946      -0.141421       0.000000
O          1.116502      -0.141312       0.000000
H         -1.368769      -1.214895       0.000000
H         -2.014059       0.563628       0.000000

@pcseg2.gbs

