%chk=ch2n.chk
%mem=500mw
%nprocs=4
# b3lyp/gen opt freq CPHF(Grid=OneStep)

methylene amidogen, B3LYP/pcseg-2

0 2
C       0.000000    -0.000000    -0.500878
N       0.000000     0.000000     0.736617
H      -0.000000     0.934572    -1.075524
H      -0.000000    -0.934572    -1.075524

@pcseg2.gbs

--Link1--
%chk=ch2n.chk
%mem=500mw
%nprocs=4
# rohf/gen geom=check guess=check

methylene amidogen, ROHF/cc-pVTZ-F12

0 2

@ccpvtz-f12.gbs
