%mem=1000mw
%nprocs=12
# b3lyp/gen opt freq CPHF(Grid=OneStep)

nitromethyl, B3LYP/pcseg-2

0 2
N          0.045713       0.000000       0.000000
C         -1.365617       0.000000       0.000000
O          0.608991       1.097885       0.000000
O          0.608991      -1.097885       0.000000
H         -1.852615      -0.963445       0.000000
H         -1.852615       0.963445       0.000000

@pcseg2.gbs

