%chk=ch2nch2.chk
%mem=500mw
%nprocs=4
# b3lyp/gen opt freq CPHF(Grid=OneStep)

2-aza-allyl, B3LYP/pcseg-2

0 2
N      -0.000000    -0.000000     0.505058
C       0.000000     1.138965    -0.154204
C      -0.000000    -1.138965    -0.154204
H      -0.000000     2.065864     0.403291
H      -0.000000    -2.065864     0.403291
H       0.000000     1.181297    -1.245769
H      -0.000000    -1.181297    -1.245769

@pcseg2.gbs

--Link1--
%chk=ch2nch2.chk
%mem=500mw
%nprocs=4
# rohf/gen geom=check guess=check

2-aza-allyl, ROHF/cc-pVTZ-F12

0 2

@ccpvtz-f12.gbs
