%mem=1000mw
%nprocs=12
# b3lyp/gen opt freq

2-aza-allyl, B3LYP/pcseg-2

0 2
N	0.0000000	0.0000000	0.4411850
C	0.0000000	1.2279090	-0.1954580
C	0.0000000	-1.2279090	-0.1954580
H	0.0000000	2.1563880	0.3624230
H	0.0000000	-2.1563880	0.3624230
H	0.0000000	1.3000090	-1.2784070
H	0.0000000	-1.3000090	-1.2784070

@pcseg2.gbs

