%chk=ch2nho.chk
%mem=500mw
%nprocs=4
# b3lyp/gen opt freq CPHF(Grid=OneStep)

oxaziridine, B3LYP/pcseg-2

0 1
C       0.687713    -0.331642     0.017221
N      -0.730096    -0.448687    -0.160634
O      -0.036827     0.861899     0.020383
H       1.134886    -0.618160     0.965731
H       1.289509    -0.526597    -0.864653
H      -1.145381    -0.619771     0.756967

@pcseg2.gbs

--Link1--
%chk=ch2nho.chk
%mem=500mw
%nprocs=4
# rohf/gen geom=check guess=check

oxaziridine, ROHF/cc-pVTZ-F12

0 1

@ccpvtz-f12.gbs
