%mem=1000mw
%nprocs=12
# b3lyp/gen opt freq

aminomethyl, B3LYP/pcseg-2

0 2
C         -0.739584       0.000000       0.060485
N          0.652708       0.000000      -0.065849
H         -1.238757       0.928384      -0.194831
H         -1.238757      -0.928384      -0.194831
H          1.107329      -0.829538       0.292200
H          1.107329       0.829538       0.292200

@pcseg2.gbs

