%chk=ch2o.chk
%mem=500mw
%nprocs=4
# b3lyp/gen opt freq CPHF(Grid=OneStep)

CH2O, B3LYP/pcseg-2

0 1
C       0.000000    -0.000000    -0.526271
O      -0.000000     0.000000     0.672821
H      -0.000000     0.937875    -1.112468
H      -0.000000    -0.937875    -1.112468

@pcseg2.gbs

--Link1--
%chk=ch2o.chk
%mem=500mw
%nprocs=4
# rohf/gen geom=check guess=check

CH2O, ROHF/cc-pVTZ-F12

0 1

@ccpvtz-f12.gbs
