%chk=ch2ohoh.chk
%mem=500mw
%nprocs=4
# b3lyp/gen opt freq CPHF(Grid=OneStep)

methanediol, B3LYP/pcseg-2

0 1
C      -0.000000    -0.000000     0.529264
O       0.000000     1.173194    -0.247374
O      -0.000000    -1.173194    -0.247374
H       0.890696    -0.071811     1.155563
H      -0.890696     0.071811     1.155563
H       0.811349     1.197558    -0.764365
H      -0.811349    -1.197558    -0.764365

@pcseg2.gbs

--Link1--
%chk=ch2ohoh.chk
%mem=500mw
%nprocs=4
# rohf/gen geom=check guess=check

methanediol, ROHF/cc-pVTZ-F12

0 1

@ccpvtz-f12.gbs
