%mem=1000mw
%nprocs=12
# b3lyp/gen opt freq

ethylidene, B3LYP/pcseg-2

0 3
C         -0.663291      -0.020353       0.000000
C          0.798901       0.085006       0.000000
H          1.605712      -0.637820       0.000000
H         -1.130450       0.972479       0.000000
H         -1.044978      -0.552233      -0.887119
H         -1.044978      -0.552233       0.887119

@pcseg2.gbs

