%mem=1000mw
%nprocs=12
# b3lyp/gen opt freq symm=loose

2-methylallyl, B3LYP/pcseg-2

0 2
C          0.719077      -1.222945       0.000000
C          0.069495       0.003835       0.000000
C         -1.444588       0.029337       0.000000
C          0.774843       1.190258       0.000000
H          0.273379       2.147422       0.000000
H          1.856370       1.194924       0.000000
H          0.169646      -2.153914       0.000000
H          1.798643      -1.281405       0.000000
H         -1.827078       1.048659       0.000000
H         -1.842902      -0.480724       0.878665
H         -1.842902      -0.480724      -0.878665

@pcseg2.gbs

