%mem=500mw
%nprocs=4
# b3lyp/gen opt freq

acetonitrile, B3LYP/pcseg-2

0 1
C	0.0000000	0.0000000	-1.1759280
C	0.0000000	0.0000000	0.2808600
N	0.0000000	0.0000000	1.4328540
H	0.0000000	1.0245280	-1.5531900
H	0.8872670	-0.5122640	-1.5531900
H	-0.8872670	-0.5122640	-1.5531900

@/home/irikura/basis/pcseg2.gbs

