%chk=ch3co.chk
%mem=500mw
%nprocs=4
# b3lyp/gen opt freq CPHF(Grid=OneStep)

acetyl, B3LYP/pcseg-2

0 2
C      -0.963210    -0.665335     0.000000
C       0.000000     0.493882     0.000000
O       1.177587     0.477015     0.000000
H      -0.432909    -1.619901     0.000000
H      -1.604266    -0.583747     0.877227
H      -1.604266    -0.583747    -0.877227

@pcseg2.gbs

--Link1--
%chk=ch3co.chk
%mem=500mw
%nprocs=4
# rohf/gen geom=check guess=check

acetyl, ROHF/cc-pVTZ-F12

0 2

@ccpvtz-f12.gbs
