%mem=500mw
%nprocs=6
# b3lyp/gen opt freq symm=loose

ethanimine, B3LYP/pcseg-2

0 1
C	-1.0301590	-0.6393790	0.0000000
C	0.0000000	0.4495330	0.0000000
N	1.2417050	0.1917160	0.0000000
H	-0.5438610	-1.6151810	0.0000000
H	-1.6789610	-0.5588890	0.8790910
H	-1.6789610	-0.5588890	-0.8790910
H	-0.3992750	1.4757770	0.0000000
H	1.7900750	1.0542490	0.0000000

@pcseg2.gbs

