%chk=ch3chchch2.chk
%mem=500mw
%nprocs=4
# b3lyp/gen opt freq CPHF(Grid=OneStep)

1-methylallyl, B3LYP/pcseg-2

0 2
C       1.353311    -1.417197     0.000000
C       0.149592    -0.743351     0.000000
C       0.000000     0.631030     0.000000
C      -1.310929     1.339212     0.000000
H       2.294401    -0.883296     0.000000
H       1.393922    -2.496083     0.000000
H      -0.759126    -1.339914     0.000000
H       0.895454     1.244677     0.000000
H      -2.146541     0.639053     0.000000
H      -1.414979     1.988702     0.875146
H      -1.414979     1.988702    -0.875146

@pcseg2.gbs

--Link1--
%chk=ch3chchch2.chk
%mem=500mw
%nprocs=4
# rohf/gen geom=check guess=check

1-methylallyl, ROHF/cc-pVTZ-F12

0 2

@ccpvtz-f12.gbs
