%chk=ch3cohch2.chk
%mem=500mw
%nprocs=4
# b3lyp/gen opt freq CPHF(Grid=OneStep)

acetone enol, B3LYP/pcseg-2

0 1
O      -1.301576    -0.329361     0.000000
C       0.000000     0.096997     0.000000
C       0.938019    -1.064857     0.000000
C       0.357593     1.380241     0.000000
H       1.972125    -0.730546     0.000000
H       0.766307    -1.689149     0.878710
H       0.766307    -1.689149    -0.878710
H      -0.374339     2.177796     0.000000
H       1.398876     1.659893     0.000000
H      -1.890332     0.431759     0.000000

@pcseg2.gbs

--Link1--
%chk=ch3cohch2.chk
%mem=500mw
%nprocs=4
# rohf/gen geom=check guess=check

acetone enol, ROHF/cc-pVTZ-F12

0 1

@ccpvtz-f12.gbs
