%chk=ch3coch2oh.chk
%mem=500mw
%nprocs=4
# b3lyp/gen opt freq CPHF(Grid=OneStep)

hydroxyacetone, B3LYP/pcseg-2

0 1
C       0.000000     0.640598     0.000000
C       0.903798    -0.588146     0.000000
C      -1.489462     0.429342     0.000000
O       0.513086     1.735199     0.000000
O       0.142621    -1.786042     0.000000
H       1.545825    -0.511761     0.883759
H       1.545825    -0.511761    -0.883759
H      -1.992419     1.392132     0.000000
H      -1.784412    -0.157034     0.871568
H      -1.784412    -0.157034    -0.871568
H       0.737929    -2.538565     0.000000

@pcseg2.gbs

--Link1--
%chk=ch3coch2oh.chk
%mem=500mw
%nprocs=4
# rohf/gen geom=check guess=check

hydroxyacetone, ROHF/cc-pVTZ-F12

0 1

@ccpvtz-f12.gbs
