%mem=1000mw
%nprocs=12
# b3lyp/gen opt freq

acetone enol, B3LYP/pcseg-2

0 1
O          0.370988       1.244345       0.000000
C          0.065193      -0.087467       0.000000
C         -1.419051      -0.288966       0.000000
C          0.974135      -1.063765       0.000000
H         -1.670561      -1.350303       0.000000
H         -1.868000       0.183409       0.880658
H         -1.868000       0.183409      -0.880658
H          2.039813      -0.857585       0.000000
H          0.670320      -2.101437       0.000000
H          1.329879       1.342044       0.000000

@pcseg2.gbs

