%chk=ch3chco.chk
%mem=500mw
%nprocs=4
# b3lyp/gen opt freq CPHF(Grid=OneStep)

methylketene, B3LYP/pcseg-2

0 1
C      -0.764753     0.126812     0.000035
C       0.466681     0.568364    -0.000070
C       1.680937    -0.329965     0.000003
O      -1.859020    -0.268603    -0.000010
H       0.581034     1.644305     0.000086
H       1.396695    -1.380829     0.000547
H       2.298511    -0.153388    -0.882204
H       2.298732    -0.152533     0.881844

@pcseg2.gbs

--Link1--
%chk=ch3chco.chk
%mem=500mw
%nprocs=4
# rohf/gen geom=check guess=check

methylketene, ROHF/cc-pVTZ-F12

0 1

@ccpvtz-f12.gbs
