%mem=1000mw
%nprocs=12
# b3lyp/gen opt freq

1,1-difluoroethane, B3LYP/pcseg-2

0 1
C	0.3247000	0.1586400	0.0000000
C	-0.9053590	1.0351080	0.0000000
H	1.2643860	0.7273200	0.0000000
F	0.3247000	-0.6462910	1.0961530
F	0.3247000	-0.6462910	-1.0961530
H	-1.7983730	0.4048950	0.0000000
H	-0.9133240	1.6692670	0.8897070
H	-0.9133240	1.6692670	-0.8897070

@pcseg2.gbs

