%mem=1000mw
%nprocs=12
# b3lyp/gen opt freq

ethylidyne, B3LYP/pcseg-2

0 2
C         -0.600917       0.000000      -0.014117
C          0.846037       0.000000      -0.015952
H         -0.695371       0.000000       1.099554
H         -1.111611      -0.908377      -0.370762
H         -1.111611       0.908377      -0.370762

@pcseg2.gbs

