%chk=ch3ccch2.chk
%mem=500mw
%nprocs=4
# b3lyp/gen opt freq CPHF(Grid=OneStep)

2-butynyl, B3LYP/pcseg-2

0 2
C      -0.028027     1.964830     0.000000
C       0.000000     0.513760     0.000000
C       0.011144    -0.708394     0.000000
C       0.025897    -2.073464     0.000000
H      -1.055970     2.338765     0.000000
H       0.468887     2.371086     0.883517
H       0.468887     2.371086    -0.883517
H       0.032055    -2.630663    -0.926502
H       0.032055    -2.630663     0.926502

@pcseg2.gbs

--Link1--
%chk=ch3ccch2.chk
%mem=500mw
%nprocs=4
# rohf/gen geom=check guess=check

2-butynyl, ROHF/cc-pVTZ-F12

0 2

@ccpvtz-f12.gbs
