%mem=1000mw
%nprocs=12
# b3lyp/gen opt(cart,calcfc) freq

1-chloropropyne, B3LYP/pcseg-2

0 1
C         -1.229142       0.000000       0.000000
C         -0.026224       0.000000       0.000000
C         -2.684170       0.000000       0.000000
Cl         1.618189       0.000000       0.000000
H         -3.079822       1.021402       0.000000
H         -3.079822      -0.510701       0.884560
H         -3.079822      -0.510701      -0.884560

@pcseg2.gbs

