%chk=ch3chf2.chk
%mem=500mw
%nprocs=4
# b3lyp/gen opt freq CPHF(Grid=OneStep)

1,1-difluoroethane, B3LYP/pcseg-2

0 1
C       0.321211     0.165682     0.000000
C      -0.897912     1.043719    -0.000000
H       1.267424     0.708843     0.000000
F       0.321211    -0.652293     1.102187
F       0.321211    -0.652293    -1.102187
H      -1.793473     0.424335    -0.000000
H      -0.897773     1.675844     0.886558
H      -0.897773     1.675844    -0.886558

@pcseg2.gbs

--Link1--
%chk=ch3chf2.chk
%mem=500mw
%nprocs=4
# rohf/gen geom=check guess=check

1,1-difluoroethane, ROHF/cc-pVTZ-F12

0 1

@ccpvtz-f12.gbs
