%mem=500mw
%nprocs=4
# b3lyp/gen opt freq

methylamine, B3LYP/pcseg-2

0 1
C	0.0504530	0.7051000	0.0000000
N	0.0504530	-0.7606310	0.0000000
H	-0.9433770	1.1809590	0.0000000
H	0.5920890	1.0660160	0.8784170
H	0.5920890	1.0660160	-0.8784170
H	-0.4483470	-1.1095860	-0.8121270
H	-0.4483470	-1.1095860	0.8121270

@/home/irikura/basis/pcseg2.gbs

