%mem=1000mw
%nprocs=12
# b3lyp/gen opt freq CPHF(Grid=OneStep)

methyl amidogen, B3LYP/pcseg-2

0 2
C         -0.690721      -0.008527       0.000000
N          0.748294       0.080525       0.000000
H          1.095009      -0.887886       0.000000
H         -1.138365       0.989741       0.000000
H         -1.064703      -0.559583       0.879629
H         -1.064703      -0.559583      -0.879629

@pcseg2.gbs

