%mem=1000mw
%nprocs=12
# b3lyp/gen opt=tight freq

nitromethane, B3LYP/pcseg-2

0 1
C     0.000334   -1.324134    0.005000
N    -0.009816    0.174097   -0.005000
H     1.044701   -1.626526    0.310000
H    -0.736671   -1.654244    0.778280
H    -0.246671   -1.674244   -1.028280
O    -0.024666    0.735071   -1.084393
O     0.025334    0.725071    1.084393

@pcseg2.gbs

