%chk=ch3nc.chk
%mem=500mw
%nprocs=4
# b3lyp/gen opt freq CPHF(Grid=OneStep)

methyl isocyanide, B3LYP/pcseg-2

0 1
C       0.000000     0.000000    -1.104969
N       0.000000     0.000000     0.313028
C       0.000000     0.000000     1.477439
H      -0.000000     1.023811    -1.475339
H       0.886646    -0.511905    -1.475339
H      -0.886646    -0.511905    -1.475339

@pcseg2.gbs

--Link1--
%chk=ch3nc.chk
%mem=500mw
%nprocs=4
# rohf/gen geom=check guess=check

methyl isocyanide, ROHF/cc-pVTZ-F12

0 1

@ccpvtz-f12.gbs
