%chk=ch3nch2.chk
%mem=500mw
%nprocs=4
# b3lyp/gen opt freq CPHF(Grid=OneStep)

N-methyl methanimine, B3LYP/pcseg-2

0 1
C      -1.074511    -0.422826     0.000000
H      -1.703132    -0.256234     0.876068
H      -1.703132    -0.256234    -0.876068
H      -0.726668    -1.464216     0.000000
N       0.000000     0.548405     0.000000
C       1.187034     0.128443     0.000000
H       1.450077    -0.937405     0.000000
H       2.007718     0.841549     0.000000

@pcseg2.gbs

--Link1--
%chk=ch3nch2.chk
%mem=500mw
%nprocs=4
# rohf/gen geom=check guess=check

N-methyl methanimine, ROHF/cc-pVTZ-F12

0 1

@ccpvtz-f12.gbs
