%chk=ch3nh.chk
%mem=500mw
%nprocs=4
# b3lyp/gen opt freq CPHF(Grid=OneStep)

methyl amidogen, B3LYP/pcseg-2

0 2
C      -0.059777    -0.624293     0.000000
N      -0.059777     0.813006     0.000000
H       0.918865     1.115192     0.000000
H      -1.078635    -1.008325     0.000000
H       0.468433    -1.026075     0.876344
H       0.468433    -1.026075    -0.876344

@pcseg2.gbs

--Link1--
%chk=ch3nh.chk
%mem=500mw
%nprocs=4
# rohf/gen geom=check guess=check

methyl amidogen, ROHF/cc-pVTZ-F12

0 2

@ccpvtz-f12.gbs
