%mem=1000mw
%nprocs=12
# b3lyp/gen opt freq CPHF(Grid=OneStep)

methylamino methyl, B3LYP/pcseg-2

0 2
N          0.065259       0.466562      -0.096342
C         -1.210477      -0.213078       0.030270
C          1.233895      -0.265892       0.068639
H          0.080680       1.373905       0.348314
H         -1.400597      -0.605739       1.041667
H         -2.021445       0.469618      -0.238385
H         -1.236644      -1.058189      -0.666040
H          2.158359       0.300173       0.044510
H          1.234080      -1.259337      -0.369140

@pcseg2.gbs

