%chk=ch3o.chk
%mem=500mw
nprocs=4
# b3lyp/gen opt freq CPHF(Grid=OneStep)

methoxyl, B3LYP/pcseg-2

0 2
O      -0.011057     0.793759     0.000000
C      -0.011057    -0.577188     0.000000
H       1.060699    -0.867561     0.000000
H      -0.452947    -1.009690     0.911521
H      -0.452947    -1.009690    -0.911521

@pcseg2.gbs

--Link1--
%chk=ch3o.chk
%mem=500mw
nprocs=4
# rohf/gen geom=check guess=check

methoxyl, ROHF/cc-pVTZ-F12

0 2

@ccpvtz-f12.gbs
