%mem=500mw
%nprocs=4
# b3lyp/gen opt freq

methoxyl, B3LYP/pcseg-2

0 2
C         -0.663780       0.000000      -0.008518
O          0.698219       0.000000      -0.003720
H         -0.964040       0.000000       1.060948
H         -1.106845      -0.908576      -0.450245
H         -1.106845       0.908576      -0.450245

@/home/irikura/basis/pcseg2.gbs

