%mem=1000mw
%nprocs=12
# b3lyp/gen opt freq

methyl nitrite, B3LYP/pcseg-2

0 1
C	1.3284180	0.3340260	0.0000000
O	0.0000000	0.8853620	0.0000000
H	1.9837550	1.2009750	0.0000000
H	1.4942340	-0.2762790	0.8897650
H	1.4942340	-0.2762790	-0.8897650
N	-1.0476730	-0.0473190	0.0000000
O	-0.7011280	-1.1755290	0.0000000

@pcseg2.gbs

