%chk=ch3ooh.chk
%mem=500mw
%nprocs=4
# b3lyp/gen opt freq CPHF(Grid=OneStep)

methyl hydroperoxide, B3LYP/pcseg-2

0 1
C       1.130103    -0.223057     0.027076
O      -0.015542     0.604797    -0.031824
O      -1.163615    -0.285676    -0.089299
H       1.970509     0.471127     0.018008
H       1.148960    -0.817526     0.943505
H       1.186092    -0.879118    -0.843440
H      -1.652924     0.010898     0.688453

@pcseg2.gbs

--Link1--
%chk=ch3ooh.chk
%mem=500mw
%nprocs=4
# rohf/gen geom=check guess=check

methyl hydroperoxide, ROHF/cc-pVTZ-F12

0 1

@ccpvtz-f12.gbs
