%chk=ch3oh.chk
%mem=500mw
%nprocs=4
# b3lyp/gen opt freq CPHF(Grid=OneStep)

CH3Cl, B3LYP/pcseg-2

0 1
C      -0.046542     0.664870    -0.000000
O      -0.046542    -0.756821    -0.000000
H      -1.087591     0.980503    -0.000000
H       0.438936     1.076471     0.890360
H       0.438936     1.076471    -0.890360
H       0.861309    -1.068102     0.000000

@pcseg2.gbs

--Link1--
%chk=ch3oh.chk
%mem=500mw
%nprocs=4
# rohf/gen geom=check guess=check

CH3Cl, ROHF/cc-pVTZ-F12

0 1

@ccpvtz-f12.gbs
