%chk=ch3ono.chk
%mem=500mw
%nprocs=4
# b3lyp/gen opt freq CPHF(Grid=OneStep)

methyl nitrite, B3LYP/pcseg-2

0 1
C       1.327926     0.334459     0.000000
O       0.000000     0.883121     0.000000
H       1.982327     1.199689     0.000000
H       1.494852    -0.273540     0.888158
H       1.494852    -0.273540    -0.888158
N      -1.045143    -0.047542     0.000000
O      -0.702948    -1.173942     0.000000

@pcseg2.gbs

--Link1--
%chk=ch3ono.chk
%mem=500mw
%nprocs=4
# rohf/gen geom=check guess=check

methyl nitrite, ROHF/cc-pVTZ-F12

0 1

@ccpvtz-f12.gbs
