%mem=1000mw
%nprocs=12
# b3lyp/gen opt freq

methysilane, B3LYP/pcseg-2

0 1
C	0.0000000	0.0000000	-1.2428980
Si	0.0000000	0.0000000	0.6341560
H	0.0000000	-1.0189140	-1.6319100
H	-0.8824050	0.5094570	-1.6319100
H	0.8824050	0.5094570	-1.6319100
H	0.0000000	1.3876210	1.1583120
H	-1.2017150	-0.6938110	1.1583120
H	1.2017150	-0.6938110	1.1583120

@pcseg2.gbs

