%chk=ch3sih3.chk
%mem=500mw
%nprocs=4
# b3lyp/gen opt freq CPHF(Grid=OneStep)

methysilane, B3LYP/pcseg-2

0 1
C       0.000000     0.000000    -1.242898
Si      0.000000     0.000000     0.634156
H       0.000000    -1.018914    -1.631910
H      -0.882405     0.509457    -1.631910
H       0.882405     0.509457    -1.631910
H       0.000000     1.387621     1.158312
H      -1.201715    -0.693811     1.158312
H       1.201715    -0.693811     1.158312

@pcseg2.gbs

--Link1--
%chk=ch3sih3.chk
%mem=500mw
%nprocs=4
# rohf/gen geom=check guess=check

methysilane, ROHF/cc-pVTZ-F12

0 1

@ccpvtz-f12.gbs
