%chk=chchcn.chk
%mem=500mw
%nprocs=4
# b3lyp/gen opt freq CPHF(Grid=OneStep)

2-cyanovinyl, B3LYP/pcseg-2

0 2
C      -0.130171    -1.702165     0.000000
C       0.588539    -0.605206     0.000000
C       0.000000     0.699905     0.000000
H      -1.168169    -1.990210     0.000000
H       1.674172    -0.642462     0.000000
N      -0.465173     1.753924     0.000000

@pcseg2.gbs

--Link1--
%chk=chchcn.chk
%mem=500mw
%nprocs=4
# rohf/gen geom=check guess=check

2-cyanovinyl, ROHF/cc-pVTZ-F12

0 2

@ccpvtz-f12.gbs
