%chk=chcl3.chk
%mem=500mw
%nprocs=4
# b3lyp/gen opt freq CPHF(Grid=OneStep)

chloroform, B3LYP/pcseg-2

0 1
C       0.000000     0.000000     0.455183
H       0.000000     0.000000     1.535548
Cl      0.000000     1.695776    -0.083660
Cl      1.468585    -0.847888    -0.083660
Cl     -1.468585    -0.847888    -0.083660

@pcseg2.gbs

--Link1--
%chk=chcl3.chk
%mem=500mw
%nprocs=4
# rohf/gen geom=check guess=check

chloroform, ROHF/cc-pVTZ-F12

0 1

@ccpvtz-f12.gbs
