%chk=chclchcl.chk
%mem=500mw
%nprocs=4
# b3lyp/gen opt freq CPHF(Grid=OneStep)

cis-1,2-dichloroethylene, B3LYP/pcseg-2

0 1
C       0.000000     0.662107     0.957182
C      -0.000000    -0.662107     0.957182
Cl      0.000000     1.661129    -0.448843
Cl     -0.000000    -1.661129    -0.448843
H       0.000000     1.209241     1.887237
H      -0.000000    -1.209241     1.887237

@pcseg2.gbs

--Link1--
%chk=chclchcl.chk
%mem=500mw
%nprocs=4
# rohf/gen geom=check guess=check

cis-1,2-dichloroethylene, ROHF/cc-pVTZ-F12

0 1

@ccpvtz-f12.gbs
