%chk=chcl2.chk
%mem=500mw
%nprocs=4
# b3lyp/gen opt freq CPHF(Grid=OneStep)

dichloromethyl, B3LYP/pcseg-2

0 2
C       0.010980     0.689687     0.000000
H      -0.439181     1.668628     0.000000
Cl      0.010980    -0.170787     1.475440
Cl      0.010980    -0.170787    -1.475440

@pcseg2.gbs

--Link1--
%chk=chcl2.chk
%mem=500mw
%nprocs=4
# rohf/gen geom=check guess=check

dichloromethyl, ROHF/cc-pVTZ-F12

0 2

@ccpvtz-f12.gbs
