%mem=1000mw
%nprocs=12
# b3lyp/gen opt freq

1,1,2,2-tetrachloroethane, B3LYP/pcseg-2

0 1
C          0.630569       0.436836       0.509513
C         -0.630569      -0.436836       0.509513
H          0.598225       1.090594       1.378717
Cl         2.078370      -0.603975       0.708866
Cl         0.770801       1.481516      -0.923448
H         -0.598225      -1.090594       1.378717
Cl        -2.078370       0.603975       0.708866
Cl        -0.770801      -1.481516      -0.923448

@pcseg2.gbs

