%chk=chf3.chk
%mem=500mw
%nprocs=4
# b3lyp/gen opt freq CPHF(Grid=OneStep)

CHF3, B3LYP/pcseg-2

0 1
C       0.000000     0.000000     0.339406
H       0.000000     0.000000     1.428455
F       0.000000     1.256121    -0.128329
F       1.087833    -0.628060    -0.128329
F      -1.087833    -0.628060    -0.128329

@pcseg2.gbs

--Link1--
%chk=chf3.chk
%mem=500mw
%nprocs=4
# rohf/gen geom=check guess=check

CHF3, ROHF/cc-pVTZ-F12

0 1

@ccpvtz-f12.gbs
