%mem=1000mw
%nprocs=12
# b3lyp/gen opt freq

cis-1,2-difluoroethylene, B3LYP/pcseg-2

0 1
C	0.0000000	0.6607390	0.5784100
C	0.0000000	-0.6607390	0.5784100
F	0.0000000	1.3865430	-0.5506470
F	0.0000000	-1.3865430	-0.5506470
H	0.0000000	1.2480300	1.4853640
H	0.0000000	-1.2480300	1.4853640

@pcseg2.gbs

