%chk=chfcl2.chk
%mem=500mw
%nprocs=4
# b3lyp/gen opt freq CPHF(Grid=OneStep)

chlorodifluoromethane, B3LYP/pcseg-2

0 1
C      -0.177871     0.521946    -0.000000
H      -1.074607     1.130098     0.000000
F       0.909938     1.320284    -0.000000
Cl     -0.177871    -0.474833     1.473045
Cl     -0.177871    -0.474833    -1.473045

@pcseg2.gbs

--Link1--
%chk=chfcl2.chk
%mem=500mw
%nprocs=4
# rohf/gen geom=check guess=check

chlorodifluoromethane, ROHF/cc-pVTZ-F12

0 1

@ccpvtz-f12.gbs
