%chk=chfo.chk
%mem=500mw
%nprocs=4
# b3lyp/gen opt freq CPHF(Grid=OneStep)

formyl fluoride, B3LYP/pcseg-2

0 1
C       0.000000     0.399807     0.000000
O       1.145439     0.136108     0.000000
F      -0.966544    -0.541938    -0.000000
H      -0.464615     1.389738    -0.000000

@pcseg2.gbs

--Link1--
%chk=chfo.chk
%mem=500mw
%nprocs=4
# rohf/gen geom=check guess=check

formyl fluoride, ROHF/cc-pVTZ-F12

0 1

@ccpvtz-f12.gbs
