%chk=cho.chk
%mem=500mw
%nprocs=4
# b3lyp/gen opt freq CPHF(Grid=OneStep)

formyl, B3LYP/pcseg-2

0 2
C       0.061692     0.582495    -0.000000
H      -0.863684     1.218697    -0.000000
O       0.061692    -0.589208     0.000000

@pcseg2.gbs

--Link1--
%chk=cho.chk
%mem=500mw
%nprocs=4
# rohf/gen geom=check guess=check

formyl, ROHF/cc-pVTZ-F12

0 2

@ccpvtz-f12.gbs
