%chk=chocho.chk
%mem=500mw
%nprocs=4
# b3lyp/gen opt freq CPHF(Grid=OneStep)

glyoxal, B3LYP/pcseg-2

0 1
C      -0.327251     0.688460     0.000000
C       0.327251    -0.688460     0.000000
H      -1.432341     0.678582     0.000000
H       1.432341    -0.678582     0.000000
O       0.327251     1.695567     0.000000
O      -0.327251    -1.695567     0.000000

@pcseg2.gbs

--Link1--
%chk=chocho.chk
%mem=500mw
%nprocs=4
# rohf/gen geom=check guess=check

glyoxal, ROHF/cc-pVTZ-F12

0 1

@ccpvtz-f12.gbs
