%chk=cl2o.chk
%mem=500mw
%nprocs=4
# b3lyp/gen opt freq CPHF(Grid=OneStep)

oxygen dichloride, B3LYP/pcseg-2

0 1
O       0.000000     0.000000     0.766989
Cl     -0.000000     1.426421    -0.180468
Cl     -0.000000    -1.426421    -0.180468

@pcseg2.gbs

--Link1--
%chk=cl2o.chk
%mem=500mw
%nprocs=4
# rohf/gen geom=check guess=check

oxygen dichloride, ROHF/cc-pVTZ-F12

0 1

@ccpvtz-f12.gbs
