%mem=1000mw
%nprocs=12
# b3lyp/gen opt freq

2-chloroethanol, B3LYP/pcseg-2

0 1
C	0.9802830	-0.5525220	0.0000000
C	0.0000000	0.6110760	0.0000000
Cl	-1.6975590	0.0002470	0.0000000
O	2.2738260	0.0278690	0.0000000
H	0.8068690	-1.1763370	0.8886380
H	0.8068690	-1.1763370	-0.8886380
H	0.1248390	1.2280190	0.8898780
H	0.1248390	1.2280190	-0.8898780
H	2.9227890	-0.6818400	0.0000000

@pcseg2.gbs

