%chk=clc2h4oh.chk
%mem=500mw
%nprocs=4
# b3lyp/gen opt freq CPHF(Grid=OneStep)

2-chloroethanol, B3LYP/pcseg-2

0 1
C       0.973047    -0.550228     0.000000
C       0.000000     0.611604     0.000000
Cl     -1.696975     0.001212     0.000000
O       2.277120     0.022380     0.000000
H       0.808698    -1.168878     0.886783
H       0.808698    -1.168878    -0.886783
H       0.122617     1.225190     0.887247
H       0.122617     1.225190    -0.887247
H       2.930698    -0.680527     0.000000

@pcseg2.gbs

--Link1--
%chk=clc2h4oh.chk
%mem=500mw
%nprocs=4
# rohf/gen geom=check guess=check

2-chloroethanol, ROHF/cc-pVTZ-F12

0 1

@ccpvtz-f12.gbs
