%mem=1000mw
%nprocs=12
# b3lyp/gen opt freq

chlorohydroxymethyl, B3LYP/pcseg-2

0 2
C          0.606833       0.582998       0.114578
O          1.636825      -0.266796      -0.058906
Cl        -1.019807      -0.090309      -0.011922
H          0.730255       1.519527      -0.420723
H          1.451289      -1.093438       0.404998

@pcseg2.gbs

