%chk=clchoh.chk
%mem=500mw
%nprocs=4
# b3lyp/gen opt freq CPHF(Grid=OneStep)

chlorohydroxymethyl, B3LYP/pcseg-2

0 2
C       0.546084     0.565536     0.159674
O       1.589839    -0.251802    -0.086421
Cl     -1.064125    -0.106479    -0.017766
H       0.662679     1.552036    -0.265062
H       1.432229    -1.120694     0.300409

@pcseg2.gbs

--Link1--
%chk=clchoh.chk
%mem=500mw
%nprocs=4
# rohf/gen geom=check guess=check

chlorohydroxymethyl, ROHF/cc-pVTZ-F12

0 2

@ccpvtz-f12.gbs
