%chk=clf3.chk
%mem=500mw
%nprocs=4
# b3lyp/gen opt freq CPHF(Grid=OneStep)

chlorine trifluoride, B3LYP/pcseg-2

0 1
Cl      0.000000     0.000000     0.359610
F      -0.000000    -0.000000    -1.261218
F      -0.000000     1.724879     0.290977
F      -0.000000    -1.724879     0.290977

@pcseg2.gbs

--Link1--
%chk=clf3.chk
%mem=500mw
%nprocs=4
# rohf/gen geom=check guess=check

chlorine trifluoride, ROHF/cc-pVTZ-F12

0 1

@ccpvtz-f12.gbs
