%chk=cme4.chk
%mem=1000mw
%nprocs=4
# b3lyp/gen opt freq CPHF(Grid=OneStep)

neopentane, B3LYP/pcseg-2

0 1
C       0.000000     0.000000     0.000000
C       0.886622     0.886622     0.886622
C      -0.886622    -0.886622     0.886622
C      -0.886622     0.886622    -0.886622
C       0.886622    -0.886622    -0.886622
H       1.529404     0.281751     1.529404
H       1.529404     1.529404     0.281751
H       0.281751     1.529404     1.529404
H      -1.529404    -1.529404     0.281751
H      -0.281751    -1.529404     1.529404
H      -1.529404    -0.281751     1.529404
H      -1.529404     0.281751    -1.529404
H      -1.529404     1.529404    -0.281751
H      -0.281751     1.529404    -1.529404
H       1.529404    -1.529404    -0.281751
H       0.281751    -1.529404    -1.529404
H       1.529404    -0.281751    -1.529404

@pcseg2.gbs

--Link1--
%chk=cme4.chk
%mem=1000mw
%nprocs=4
# rohf/gen geom=check guess=check

neopentane, ROHF/cc-pVTZ-F12

0 1

@ccpvtz-f12.gbs
