%mem=500mw
%nprocs=6
# b3lyp/gen opt freq

cyclopentadiene, B3LYP/pcseg-2

0 1
H	0.8778080	0.0000000	1.8821550
H	-0.8778080	0.0000000	1.8821550
H	0.0000000	2.2141200	0.6109790
H	0.0000000	-2.2141200	0.6109790
H	0.0000000	1.3470220	-1.8876420
H	0.0000000	-1.3470220	-1.8876420
C	0.0000000	1.1813070	0.2815560
C	0.0000000	-1.1813070	0.2815560
C	0.0000000	0.0000000	1.2175220
C	0.0000000	0.7350860	-0.9912320
C	0.0000000	-0.7350860	-0.9912320

@pcseg2.gbs

