%chk=CpMe.chk
%mem=500mw
%nprocs=4
# b3lyp/gen opt freq CPHF(Grid=OneStep)

5-methyl-1,3-cyclopentadiene, B3LYP/pcseg-2

0 1
C       0.237557     0.788358     0.000000
C       0.226718    -0.155570     1.173773
C       0.226718    -0.155570    -1.173773
C       0.226718    -1.423964     0.733195
C       0.226718    -1.423964    -0.733195
H       1.191698     1.334603     0.000000
C      -0.899954     1.821367     0.000000
H       0.223167     0.171999     2.202629
H       0.223167     0.171999    -2.202629
H       0.225994    -2.313618     1.345967
H       0.225994    -2.313618    -1.345967
H      -1.869959     1.324213     0.000000
H      -0.843460     2.460240    -0.881933
H      -0.843460     2.460240     0.881933

@pcseg2.gbs

--Link1--
%chk=CpMe.chk
%mem=500mw
%nprocs=4
# rohf/gen geom=check guess=check

5-methyl-1,3-cyclopentadiene, ROHF/cc-pVTZ-F12

0 1

@ccpvtz-f12.gbs
