%chk=cyc3me.chk
%mem=500mw
%nprocs=4
# b3lyp/gen opt freq CPHF(Grid=OneStep)

methylcyclopropane, B3LYP/pcseg-2

0 1
C       0.345364     0.400787    -0.000000
C      -0.877667     1.284830    -0.000000
H       1.286623     0.937759    -0.000000
C       0.345364    -0.900612     0.754088
C       0.345364    -0.900612    -0.754088
H       1.248101    -1.204225     1.265328
H       1.248101    -1.204225    -1.265328
H      -0.567576    -1.188753     1.257976
H      -0.567576    -1.188753    -1.257976
H      -1.790808     0.686594     0.000000
H      -0.903711     1.927622     0.882416
H      -0.903711     1.927622    -0.882416

@pcseg2.gbs

--Link1--
%chk=cyc3me.chk
%mem=500mw
%nprocs=4
# rohf/gen geom=check guess=check

methylcyclopropane, ROHF/cc-pVTZ-F12

0 1

@ccpvtz-f12.gbs
