%chk=cyc3ene.chk
%mem=500mw
%nprocs=4
# b3lyp/gen opt freq CPHF(Grid=OneStep)

cyclopropene, B3LYP/pcseg-2

0 1
C       0.000000     0.000000     0.860684
C       0.000000     0.643273    -0.500092
C      -0.000000    -0.643273    -0.500092
H       0.000000     1.571931    -1.039652
H      -0.000000    -1.571931    -1.039652
H       0.909656    -0.000000     1.458155
H      -0.909656     0.000000     1.458155

@pcseg2.gbs

--Link1--
%chk=cyc3ene.chk
%mem=500mw
%nprocs=4
# rohf/gen geom=check guess=check

cyclopropene, ROHF/cc-pVTZ-F12

0 1

@ccpvtz-f12.gbs
