%mem=1000mw
%nprocs=12
# b3lyp/gen opt freq

trimethylenecyclopropane, B3LYP/pcseg-2

0 1
C	0.0000000	0.8305340	0.0000000
C	0.7192640	-0.4152670	0.0000000
C	-0.7192640	-0.4152670	0.0000000
C	0.0000000	2.1603830	0.0000000
C	1.8709470	-1.0801920	0.0000000
C	-1.8709470	-1.0801920	0.0000000
H	-0.9261800	2.7216420	0.0000000
H	0.9261800	2.7216420	0.0000000
H	2.8201010	-0.5587260	0.0000000
H	1.8939220	-2.1629160	0.0000000
H	-1.8939220	-2.1629160	0.0000000
H	-2.8201010	-0.5587260	0.0000000

@pcseg2.gbs

