%mem=1000mw
%nprocs=12
# b3lyp/gen opt freq

cyclopropene, B3LYP/pcseg-2

0 1
C	0.0000000	0.0000000	0.8605130
C	0.0000000	0.6452820	-0.5007980
C	0.0000000	-0.6452820	-0.5007980
H	0.0000000	1.5766490	-1.0389680
H	0.0000000	-1.5766490	-1.0389680
H	0.9119310	0.0000000	1.4622140
H	-0.9119310	0.0000000	1.4622140

@pcseg2.gbs

