%chk=cyc3yl.chk
%mem=500mw
%nprocs=4
# b3lyp/gen opt freq CPHF(Grid=OneStep)

cyclopropyl, B3LYP/pcseg-2

0 2
C       0.027082     0.883080    -0.000000
C       0.027082    -0.362463     0.766418
C       0.027082    -0.362463    -0.766418
H      -0.628297     1.738335    -0.000000
H      -0.871984    -0.659660     1.295981
H      -0.871984    -0.659660    -1.295981
H       0.942396    -0.683970     1.251364
H       0.942396    -0.683970    -1.251364

@pcseg2.gbs

--Link1--
%chk=cyc3yl.chk
%mem=500mw
%nprocs=4
# rohf/gen geom=check guess=check

cyclopropyl, ROHF/cc-pVTZ-F12

0 2

@ccpvtz-f12.gbs
