%mem=1000mw
%nprocs=12
# b3lyp/gen opt freq

cyclopropyl, B3LYP/pcseg-2

0 2
C          0.000000       0.859048      -0.090008
C          0.767531      -0.386614       0.018109
C         -0.767531      -0.386614       0.018109
H          0.000000       1.769093       0.492710
H          1.298547      -0.609654       0.941868
H         -1.298547      -0.609654       0.941868
H          1.257437      -0.785808      -0.867993
H         -1.257437      -0.785808      -0.867993

@pcseg2.gbs

