%mem=1000mw
%nprocs=12
# b3lyp/gen opt freq

methylcyclopropane, B3LYP/pcseg-2

0 1
C	0.3455870	0.4011700	0.0000000
C	-0.8783770	1.2857190	0.0000000
H	1.2882620	0.9388720	0.0000000
C	0.3455870	-0.9012720	0.7546050
C	0.3455870	-0.9012720	-0.7546050
H	1.2498180	-1.2050740	1.2665540
H	1.2498180	-1.2050740	-1.2665540
H	-0.5686220	-1.1903650	1.2591230
H	-0.5686220	-1.1903650	-1.2591230
H	-1.7933880	0.6876790	0.0000000
H	-0.9037820	1.9291300	0.8837650
H	-0.9037820	1.9291300	-0.8837650

@pcseg2.gbs

