%chk=cyc4.chk
%mem=500mw
%nprocs=4
# b3lyp/gen opt freq CPHF(Grid=OneStep)

cyclobutane, B3LYP/pcseg-2

0 1
C       0.000000     1.082812     0.122477
C      -0.000000    -1.082812     0.122477
C      -1.082812     0.000000    -0.122477
C       1.082812    -0.000000    -0.122477
H       0.000000     1.424137     1.157991
H       0.000000     1.955821    -0.528877
H      -0.000000    -1.424137     1.157991
H      -0.000000    -1.955821    -0.528877
H      -1.424137     0.000000    -1.157991
H      -1.955821     0.000000     0.528877
H       1.424137    -0.000000    -1.157991
H       1.955821    -0.000000     0.528877

@pcseg2.gbs

--Link1--
%chk=cyc4.chk
%mem=500mw
%nprocs=4
# rohf/gen geom=check guess=check

cyclobutane, ROHF/cc-pVTZ-F12

0 1

@ccpvtz-f12.gbs
