%mem=1000mw
%nprocs=12
# b3lyp/gen opt(calcfc,tight) freq int=superfine

cyclopentane, B3LYP/pcseg-2 superfine grid

0 1
C           0.937655    -0.869291    -0.174590
C          -1.262355     0.098098    -0.221587
C          -0.301639     1.259575     0.099395
C           1.128645     0.651779     0.039641
C          -0.508749    -1.148132     0.256956
H          -1.426383     0.031717    -1.300467
H          -2.239994     0.217705     0.246201
H          -0.504631     1.642569     1.100828
H          -0.425531     2.096817    -0.587217
H           1.664192     0.846386     0.969309
H           1.723812     1.092729    -0.759828
H           1.668311    -1.464989     0.372814
H           1.053138    -1.116025    -1.232579
H          -0.568376    -1.222401     1.346681
H          -0.905878    -2.076674    -0.154631

@pcseg2.gbs

