%chk=cyc5dime11.chk
%mem=1000mw
%nprocs=8
# b3lyp/gen opt freq CPHF(Grid=OneStep)

1,1-dimethylcyclopentane, B3LYP/pcseg-2

0 1
C      -0.226100     2.130760     0.000000
C       0.165430     0.647440     0.000000
C       1.701800     0.522140    -0.000000
C      -0.444890    -0.123910     1.196900
C      -0.444890    -0.123910    -1.196900
C      -0.444890    -1.613410     0.779570
C      -0.444890    -1.613410    -0.779570
H       0.168230     2.646500     0.884750
H      -1.316390     2.252380     0.000000
H       0.168230     2.646500    -0.884750
H       2.133170     1.004660     0.885880
H       2.133170     1.004660    -0.885880
H       2.031220    -0.523190    -0.000000
H       0.095990     0.056790     2.133820
H      -1.476370     0.220460     1.352170
H      -1.476370     0.220460    -1.352170
H       0.095990     0.056790    -2.133820
H      -1.308370    -2.145640     1.192510
H       0.445160    -2.124470     1.163320
H       0.445160    -2.124470    -1.163320
H      -1.308370    -2.145640    -1.192510

@pcseg2.gbs

--Link1--
%chk=cyc5dime11.chk
%mem=1000mw
%nprocs=8
# rohf/gen geom=check guess=check

1,1-dimethylcyclopentane, ROHF/cc-pVTZ-F12

0 1

@ccpvtz-f12.gbs
