%mem=1000mw
%nprocs=12
# b3lyp/gen opt(calcfc,cart) freq

cyclopentane, B3LYP/pcseg-2

0 1
C           0.937784    -0.869152    -0.174590
C          -1.262370     0.097910    -0.221587
C          -0.301826     1.259530     0.099395
C           1.128548     0.651947     0.039641
C          -0.508578    -1.148208     0.256956
H          -1.426388     0.031505    -1.300467
H          -2.240026     0.217372     0.246201
H          -0.504875     1.642494     1.100828
H          -0.425843     2.096754    -0.587217
H           1.664066     0.846633     0.969309
H           1.723650     1.092985    -0.759828
H           1.668529    -1.464741     0.372814
H           1.053304    -1.115868    -1.232579
H          -0.568194    -1.222485     1.346681
H          -0.905569    -2.076809    -0.154631

@pcseg2.gbs

