%mem=1000mw
%nprocs=12
# b3lyp/gen opt freq

methylcyclopentane, B3LYP/pcseg-2

0 1
C	0.2161370	2.2197100	0.0000000
C	0.4509070	0.7116280	0.0000000
C	-0.1591280	-0.0358230	1.1971140
C	-0.1591280	-0.0358230	-1.1971140
C	-0.1591280	-1.5222550	-0.7789470
C	-0.1591280	-1.5222550	0.7789470
H	0.6563280	2.6916030	-0.8821050
H	0.6563280	2.6916030	0.8821050
H	-0.8540840	2.4456120	0.0000000
H	1.5326370	0.5269310	0.0000000
H	0.3797820	0.1424600	2.1302530
H	0.3797820	0.1424600	-2.1302530
H	-1.1857570	0.3159030	1.3458220
H	-1.1857570	0.3159030	-1.3458220
H	0.7343580	-2.0232250	-1.1574360
H	0.7343580	-2.0232250	1.1574360
H	-1.0155780	-2.0585590	-1.1907930
H	-1.0155780	-2.0585590	1.1907930

@pcseg2.gbs

