%chk=cyc5.chk
%mem=1000mw
%nprocs=4
# b3lyp/gen opt=vtight freq int=superfine

cyclopentane, C2 symm, B3LYP/pcseg-2, vtight geom, superfine ints

0 1
 C                 -1.21559878   -0.35782326    0.36847954
 C                 -0.75612424   -0.03411121   -1.04578544
 C                  0.75612424    0.03411121   -1.04578544
 C                  1.21559878    0.35782326    0.36847954
 C                  0.00000000    0.00000000    1.29840751
 H                 -1.87628409   -1.26081211    0.36892786
 H                 -1.81600769    0.48878647    0.78699007
 H                 -1.11481945   -0.81778002   -1.75988745
 H                 -1.18547958    0.94152110   -1.38525693
 H                  1.11481945    0.81778002   -1.75988745
 H                  1.18547958   -0.94152110   -1.38525693
 H                  1.87628409    1.26081211    0.36892786
 H                  1.81600769   -0.48878647    0.78699007
 H                  0.00617993    0.91472747    1.95515406
 H                 -0.00617993   -0.91472747    1.95515406

@pcseg2.gbs

--Link1--
%chk=cyc5.chk
%mem=1000mw
%nprocs=4
# rohf/gen geom=check guess=check

cyclopentane, ROHF/cc-pVTZ-F12

0 1

@ccpvtz-f12.gbs
