%mem=1000mw
%nprocs=12
# b3lyp/gen opt freq

cyclohexane, B3LYP/pcseg-2

0 1
C	0.0000000	-1.4656830	0.2298360
C	-1.2693190	0.7328420	0.2298360
C	1.2693190	0.7328420	0.2298360
C	0.0000000	1.4656830	-0.2298360
C	-1.2693190	-0.7328420	-0.2298360
C	1.2693190	-0.7328420	-0.2298360
H	0.0000000	-1.5322230	1.3271050
H	-1.3269440	0.7661120	1.3271050
H	1.3269440	0.7661120	1.3271050
H	0.0000000	1.5322230	-1.3271050
H	-1.3269440	-0.7661120	-1.3271050
H	1.3269440	-0.7661120	-1.3271050
H	0.0000000	-2.4963590	-0.1431380
H	-2.1619100	1.2481800	-0.1431380
H	2.1619100	1.2481800	-0.1431380
H	0.0000000	2.4963590	0.1431380
H	-2.1619100	-1.2481800	0.1431380
H	2.1619100	-1.2481800	0.1431380

@pcseg2.gbs

