%chk=cyc7triene.chk
%mem=1000mw
%nprocs=4
# b3lyp/gen opt freq CPHF(Grid=OneStep)

cycloheptatriene, B3LYP/pcseg-2

0 1
C       0.453771     1.484313    -0.000000
H       1.495710     1.145720    -0.000000
C      -0.247075     0.949803     1.219210
H      -0.751128     1.650274     1.874163
C      -0.247075     0.949803    -1.219210
H      -0.751128     1.650274    -1.874163
C      -0.247075    -0.359708     1.524370
H      -0.674975    -0.667294     2.472533
C      -0.247075    -0.359708    -1.524370
H      -0.674975    -0.667294    -2.472533
C       0.253370    -1.416060     0.679463
H       0.532053    -2.339262     1.175066
C       0.253370    -1.416060    -0.679463
H       0.532053    -2.339262    -1.175066
H       0.459117     2.572544    -0.000000

@pcseg2.gbs

--Link1--
%chk=cyc7triene.chk
%mem=1000mw
%nprocs=4
# rohf/gen geom=check guess=check

cycloheptatriene, ROHF/cc-pVTZ-F12

0 1

@ccpvtz-f12.gbs
