%mem=1000MW
%nprocs=12
# opt freq b3lyp/gen 

cycloheptatriene, B3LYP/pcseg-2

0 1
 C                 -0.52549254   -1.46391424    0.00000000
 H                 -1.55321360   -1.07409654    0.00000000
 C                  0.20232832   -0.96212161    1.22160800
 H                  0.67582790   -1.68886294    1.87618200
 C                  0.20232832   -0.96212161   -1.22160800
 H                  0.67582790   -1.68886294   -1.87618200
 C                  0.26321801    0.34814760    1.52686700
 H                  0.70556347    0.63830786    2.47789900
 C                  0.26321801    0.34814760   -1.52686700
 H                  0.70556347    0.63830786   -2.47789900
 C                 -0.18453610    1.42900174    0.68041900
 H                 -0.42176199    2.36649878    1.17867900
 C                 -0.18453610    1.42900174   -0.68041900
 H                 -0.42176199    2.36649878   -1.17867900
 H                 -0.58521264   -2.55463824    0.00000000

@pcseg2.gbs

