%mem=1000MW
%nprocs=12
# opt freq b3lyp/gen 

cycloheptadiene, B3LYP/pcseg-2

0 1
C          0.000000       1.518133       0.425507
C          0.730708      -1.464226       0.074140
C         -0.730708      -1.464226       0.074140
C          1.595946      -0.448907      -0.066437
C         -1.595946      -0.448907      -0.066437
C          1.299860       1.017148      -0.218022
C         -1.299860       1.017148      -0.218022
H          0.000000       2.613653       0.383970
H          0.000000       1.246442       1.487529
H          1.167124      -2.455634       0.178910
H         -1.167124      -2.455634       0.178910
H          2.654022      -0.703795      -0.072165
H         -2.654022      -0.703795      -0.072165
H          2.137579       1.578873       0.215404
H          1.307891       1.280774      -1.286894
H         -2.137579       1.578873       0.215404
H         -1.307891       1.280774      -1.286894

@pcseg2.gbs

