%mem=1000mw
%nprocs=12
# b3lyp/gen opt freq

cyclobutene, B3LYP/pcseg-2

0 1
C	0.0000000	0.6688260	0.8146240
C	0.0000000	-0.6688260	0.8146240
C	0.0000000	0.7860460	-0.6993990
C	0.0000000	-0.7860460	-0.6993990
H	0.0000000	1.4180850	1.5983580
H	0.0000000	-1.4180850	1.5983580
H	0.8884730	1.2462970	-1.1448560
H	-0.8884730	-1.2462970	-1.1448560
H	-0.8884730	1.2462970	-1.1448560
H	0.8884730	-1.2462970	-1.1448560

@pcseg2.gbs

