%chk=cyclobutene.chk
%mem=500mw
%nprocs=4
# b3lyp/gen opt freq CPHF(Grid=OneStep)

cyclobutene, B3LYP/pcseg-2

0 1
C      -0.000000     0.667268     0.812434
C      -0.000000    -0.667268     0.812434
C      -0.000000     0.784707    -0.698214
C      -0.000000    -0.784707    -0.698214
H      -0.000000     1.412400     1.596418
H      -0.000000    -1.412400     1.596418
H       0.886126     1.243098    -1.140867
H      -0.886126    -1.243098    -1.140867
H      -0.886126     1.243098    -1.140867
H       0.886126    -1.243098    -1.140867

@pcseg2.gbs

--Link1--
%chk=cyclobutene.chk
%mem=500mw
%nprocs=4
# rohf/gen geom=check guess=check

cyclobutene, ROHF/cc-pVTZ-F12

0 1

@ccpvtz-f12.gbs
