%mem=1000mw
%nprocs=12
# b3lyp/gen opt freq

cyclobutadiene, B3LYP/pcseg-2

0 1
C	0.0000000	0.6658680	0.7894590
C	0.0000000	0.6658680	-0.7894590
C	0.0000000	-0.6658680	0.7894590
C	0.0000000	-0.6658680	-0.7894590
H	0.0000000	1.4368790	1.5473980
H	0.0000000	1.4368790	-1.5473980
H	0.0000000	-1.4368790	1.5473980
H	0.0000000	-1.4368790	-1.5473980

@pcseg2.gbs

