%mem=1000mw
%nprocs=12
# b3lyp/gen opt freq

cyclohexene, B3LYP/pcseg-2

0 1
C	-0.1183190	-0.6552010	1.3039830
C	0.1183190	0.6552010	1.3039830
C	0.2505010	1.4790450	0.0476580
C	-0.2505010	-1.4790450	0.0476580
C	-0.2505010	0.7242030	-1.1910240
C	0.2505010	-0.7242030	-1.1910240
H	-0.2233030	-1.1800050	2.2492510
H	0.2233030	1.1800050	2.2492510
H	1.3009140	1.7663780	-0.0865300
H	-1.3009140	-1.7663780	-0.0865300
H	-0.2993300	2.4178820	0.1666460
H	0.2993300	-2.4178820	0.1666460
H	-1.3454680	0.7226710	-1.1920690
H	1.3454680	-0.7226710	-1.1920690
H	0.0649820	1.2409830	-2.1010020
H	-0.0649820	-1.2409830	-2.1010020

@pcseg2.gbs

