%mem=1000mw
%nprocs=12
# b3lyp/gen opt freq

cycloheptene, B3LYP/pcseg-2

0 1
 C                 -0.16970178   -1.63303192    0.00000000
 C                  0.15147308    1.54270135    0.66666988
 C                  0.15147308    1.54270135   -0.66666988
 C                 -0.32740190    0.42882946    1.56889619
 C                 -0.32740190    0.42882946   -1.56889619
 C                  0.28665321   -0.95728901    1.30002054
 C                  0.28665321   -0.95728901   -1.30002054
 H                  0.19973812   -2.66612276    0.00000000
 H                 -1.26722421   -1.70558453    0.00000000
 H                  0.51636257    2.43515972    1.17105063
 H                  0.51636257    2.43515972   -1.17105063
 H                 -0.11954796    0.70566360    2.60797311
 H                 -1.42315664    0.34423074    1.49964025
 H                 -0.11954796    0.70566360   -2.60797311
 H                 -1.42315664    0.34423074   -1.49964025
 H                  0.02389397   -1.61412595    2.13861773
 H                  1.38094857   -0.87158708    1.30408449
 H                  0.02389397   -1.61412595   -2.13861773
 H                  1.38094857   -0.87158708   -1.30408449

@pcseg2.gbs

