%chk=cycloheptene.chk
%mem=1000mw
%nprocs=4
# b3lyp/gen opt freq CPHF(Grid=OneStep)

cycloheptene, B3LYP/pcseg-2

0 1
C      -0.811684    -1.424028    -0.000000
C       0.753015     1.353103     0.665698
C       0.753015     1.353103    -0.665698
C      -0.122372     0.520197     1.568446
C      -0.122372     0.520197    -1.568446
C      -0.122372    -0.991603     1.296747
C      -0.122372    -0.991603    -1.296747
H      -0.891859    -2.514404    -0.000000
H      -1.840647    -1.046668    -0.000000
H       1.437046     2.031824     1.164041
H       1.437046     2.031824    -1.164041
H       0.188033     0.685946     2.601456
H      -1.155816     0.884536     1.509002
H       0.188033     0.685946    -2.601456
H      -1.155816     0.884536    -1.509002
H      -0.626707    -1.484203     2.132404
H       0.909128    -1.355664     1.300508
H      -0.626707    -1.484203    -2.132404
H       0.909128    -1.355664    -1.300508

@pcseg2.gbs

--Link1--
%chk=cycloheptene.chk
%mem=1000mw
%nprocs=4
# rohf/gen geom=check guess=check

cycloheptene, ROHF/cc-pVTZ-F12

0 1

@ccpvtz-f12.gbs
