%mem=500mw
%nprocs=6
# b3lyp/gen opt freq

Cyrene, B3LYP/pcseg-2

0 1
C  1.360986   -0.098442   -0.049649
C  0.855523    1.238049   -0.568745
C  -0.441768    1.692117    0.135725
C  -1.334444    0.500678    0.475592
C  -1.681662   -0.383692   -0.728987
O  -0.587839   -1.312765   -0.793649
C  0.234877   -1.067747    0.339194
O  2.525905   -0.390156    0.049969
O  -0.583276   -0.421566    1.289058
H  1.652049    1.974341   -0.479992
H  0.669060    1.095267   -1.637383
H  -0.194740    2.199058    1.069619
H  -0.986417    2.406133   -0.485418
H  -2.209039    0.802065    1.047636
H  -2.607976   -0.937283   -0.572221
H  -1.746363    0.170642   -1.665772
H  0.624042   -2.000100    0.741732

@pcseg2.gbs

