%chk=dioxolane.chk
%mem=500mw
%nprocs=4
# b3lyp/gen opt freq CPHF(Grid=OneStep)

1,3-Dioxolane geometry opt, B3LYP/pcseg-2

0 1
C       1.182683    -0.076140     0.132178
C      -1.030486    -0.670503    -0.068978
C      -0.858511     0.835885     0.159286
O       0.307755    -1.178792    -0.039767
O       0.479206     1.072595    -0.268487
H       1.478735    -0.000068     1.188644
H       2.058136    -0.196438    -0.503814
H      -1.469987    -0.890965    -1.043231
H      -0.972385     1.096501     1.217462
H      -1.525240     1.452775    -0.437718
H      -1.627066    -1.147678     0.709769

@pcseg2.gbs

--Link1--
%chk=dioxolane.chk
%mem=500mw
%nprocs=4
# rohf/gen geom=check guess=check

1,3-Dioxolane geometry opt, ROHF/cc-pVTZ-F12

0 1

@ccpvtz-f12.gbs
