%chk=disiloxane.chk
%mem=500mw
%nprocs=4
# b3lyp/gen opt freq CPHF(Grid=OneStep)

disilyl ether, B3LYP/pcseg-2

0 1
O       0.000000     0.000000     0.176895
Si     -0.000000     1.617079    -0.030862
Si     -0.000000    -1.617079    -0.030862
H      -0.000000     2.276567     1.292716
H       1.205936     2.030937    -0.784113
H      -1.205936     2.030937    -0.784113
H      -0.000000    -2.276567     1.292716
H      -1.205936    -2.030937    -0.784113
H       1.205936    -2.030937    -0.784113

@pcseg2.gbs

--Link1--
%chk=disiloxane.chk
%mem=500mw
%nprocs=4
# rohf/gen geom=check guess=check

disilyl ether, ROHF/cc-pVTZ-F12

0 1

@ccpvtz-f12.gbs
