%chk=DMA.chk
%mem=500mw
%nprocs=4
# b3lyp/gen opt freq CPHF(Grid=OneStep)

dimethylamine, B3LYP/pcseg-2

0 1
N       0.026366     0.577022    -0.000000
H      -0.762696     1.208594    -0.000000
C       0.026366    -0.221152     1.215366
C       0.026366    -0.221152    -1.215366
H      -0.800029    -0.947366     1.273046
H      -0.800029    -0.947366    -1.273046
H       0.960982    -0.781477     1.282368
H       0.960982    -0.781477    -1.282368
H      -0.030086     0.431885     2.085933
H      -0.030086     0.431885    -2.085933

@pcseg2.gbs

--Link1--
%chk=DMA.chk
%mem=500mw
%nprocs=4
# rohf/gen geom=check guess=check

dimethylamine, ROHF/cc-pVTZ-F12

0 1

@ccpvtz-f12.gbs
