%chk=DME.chk
%mem=500mw
%nprocs=4
# b3lyp/gen opt freq CPHF(Grid=OneStep)

dimethyl ether, B3LYP/pcseg-2

0 1
O      -0.000000    -0.000000     0.586674
C       0.000000     1.173542    -0.194662
C      -0.000000    -1.173542    -0.194662
H       0.000000     2.020190     0.488352
H      -0.000000    -2.020190     0.488352
H       0.889960     1.231111    -0.833537
H      -0.889960     1.231111    -0.833537
H      -0.889960    -1.231111    -0.833537
H       0.889960    -1.231111    -0.833537

@pcseg2.gbs

--Link1--
%chk=DME.chk
%mem=500mw
%nprocs=4
# rohf/gen geom=check guess=check

dimethyl ether, ROHF/cc-pVTZ-F12

0 1

@ccpvtz-f12.gbs
