%mem=500mw
%nprocs=8
# b3lyp/gen opt freq

dimethylformamide, B3LYP/pcseg-2

0 1
C	0.6943430	-0.8268290	0.0000000
O	0.2077290	-1.9387760	0.0000000
N	0.0000000	0.3476210	0.0000000
C	-1.4535560	0.3344140	0.0000000
C	0.6698750	1.6324730	0.0000000
H	1.7880500	-0.6552680	0.0000000
H	-1.7796860	-0.7039520	0.0000000
H	-1.8457430	0.8396780	0.8893070
H	-1.8457430	0.8396780	-0.8893070
H	1.7507810	1.4814740	0.0000000
H	0.4032710	2.2174490	-0.8877670
H	0.4032710	2.2174490	0.8877670

@pcseg2.gbs

