%chk=DMSO.chk
%mem=500mw
%nprocs=4
# b3lyp/gen opt freq CPHF(Grid=OneStep)

dimethylsulfoxide, B3LYP/pcseg-2

0 1
S       0.256408     0.427479    -0.000000
O      -1.087562     1.076359    -0.000000
C       0.256408    -0.785575     1.357606
C       0.256408    -0.785575    -1.357606
H       1.180840    -1.361429     1.338050
H       1.180840    -1.361429    -1.338050
H       0.193789    -0.217801     2.283010
H       0.193789    -0.217801    -2.283010
H      -0.614093    -1.432591     1.260246
H      -0.614093    -1.432591    -1.260246

@pcseg2.gbs

--Link1--
%chk=DMSO.chk
%mem=500mw
%nprocs=4
# rohf/gen geom=check guess=check

dimethylsulfoxide, ROHF/cc-pVTZ-F12

0 1

@ccpvtz-f12.gbs
