%chk=DMSO2.chk
%mem=500mw
%nprocs=4
# b3lyp/gen opt freq CPHF(Grid=OneStep)

dimethylsulfone, B3LYP/pcseg-2

0 1
S       0.000000     0.000000     0.189419
O      -1.253562     0.000000     0.911203
O       1.253562    -0.000000     0.911203
C      -0.000000     1.411271    -0.914253
C      -0.000000    -1.411271    -0.914253
H      -0.000000     2.288071    -0.270186
H      -0.000000    -2.288071    -0.270186
H       0.899154     1.396148    -1.524637
H      -0.899154     1.396148    -1.524637
H      -0.899154    -1.396148    -1.524637
H       0.899154    -1.396148    -1.524637

@pcseg2.gbs

--Link1--
%chk=DMSO2.chk
%mem=500mw
%nprocs=4
# rohf/gen geom=check guess=check

dimethylsulfone, ROHF/cc-pVTZ-F12

0 1

@ccpvtz-f12.gbs
