%mem=500mw
%nprocs=6
# b3lyp/gen opt freq

dimethylsulfoxide, B3LYP/pcseg-2

0 1
S	0.2606870	0.4329330	0.0000000
O	-1.1028020	1.0808240	0.0000000
C	0.2606870	-0.7926310	1.3673980
C	0.2606870	-0.7926310	-1.3673980
H	1.1676870	-1.3987850	1.3308470
H	1.1676870	-1.3987850	-1.3308470
H	0.2298820	-0.2235700	2.2962050
H	0.2298820	-0.2235700	-2.2962050
H	-0.6359750	-1.4086190	1.2835600
H	-0.6359750	-1.4086190	-1.2835600

@pcseg2.gbs

