%mem=500mw
%nprocs=8
# b3lyp/gen opt freq

dimethylsulfone, B3LYP/pcseg-2

0 1
S	0.0000000	0.0000000	0.1934530
O	-1.2730870	0.0000000	0.9170480
O	1.2730870	0.0000000	0.9170480
C	0.0000000	1.4226640	-0.9235820
C	0.0000000	-1.4226640	-0.9235820
H	0.0000000	2.3000400	-0.2770610
H	0.0000000	-2.3000400	-0.2770610
H	0.9027010	1.4060830	-1.5327260
H	-0.9027010	1.4060830	-1.5327260
H	-0.9027010	-1.4060830	-1.5327260
H	0.9027010	-1.4060830	-1.5327260

@pcseg2.gbs

