%chk=EC.chk
%mem=500mw
%nprocs=4
# b3lyp/gen opt freq CPHF(Grid=OneStep)

Ethylene carbonate geom and freqs, B3LYP/pcseg-2

0 1
C      -0.000000    -0.000000     0.851984
O      -0.000000    -0.000000     2.038585
O       0.000000     1.113882     0.074008
O      -0.000000    -1.113882     0.074008
C       0.173131     0.744834    -1.300607
C      -0.173131    -0.744834    -1.300607
H      -0.493508     1.347700    -1.911121
H       1.207403     0.936393    -1.587595
H       0.493508    -1.347700    -1.911121
H      -1.207403    -0.936393    -1.587595

@pcseg2.gbs

--Link1--
%chk=EC.chk
%mem=500mw
%nprocs=4
# rohf/gen geom=check guess=check

Ethylene carbonate geom and freqs, ROHF/cc-pVTZ-F12

0 1

@ccpvtz-f12.gbs
