%chk=EC.chk
%mem=500mw
%nprocs=6
# b3lyp/gen opt freq

Ethylene carbonate geom and freqs, B3LYP/pcseg-2

0 1
C	0.0000000	0.0000000	0.8640710
O	0.0000000	0.0000000	2.0456150
O	0.0000000	1.1307440	0.0518920
O	0.0000000	-1.1307440	0.0518920
C	0.1575390	0.7562840	-1.2797160
C	-0.1575390	-0.7562840	-1.2797160
H	-0.5284880	1.3307090	-1.9070450
H	1.1855910	0.9601090	-1.6044670
H	0.5284880	-1.3307090	-1.9070450
H	-1.1855910	-0.9601090	-1.6044670

@/home/irikura/basis/pcseg2.gbs

