%chk=et2o.chk
%mem=1000mw
%nprocs=4
# b3lyp/gen opt freq CPHF(Grid=OneStep)

diethyl ether, B3LYP/pcseg-2

0 1
O       0.000000     0.000000     0.259454
C      -0.000000     1.184462    -0.516903
C      -0.000000    -1.184462    -0.516903
C      -0.000000     2.381494     0.411278
C      -0.000000    -2.381494     0.411278
H       0.884067     1.202078    -1.169008
H      -0.884067     1.202078    -1.169008
H       0.884067    -1.202078    -1.169008
H      -0.884067    -1.202078    -1.169008
H      -0.000000     3.307346    -0.165280
H      -0.000000    -3.307346    -0.165280
H      -0.883274     2.372975     1.049615
H       0.883274     2.372975     1.049615
H       0.883274    -2.372975     1.049615
H      -0.883274    -2.372975     1.049615

@pcseg2.gbs

--Link1--
%chk=et2o.chk
%mem=1000mw
%nprocs=4
# rohf/gen geom=check guess=check

diethyl ether, ROHF/cc-pVTZ-F12

0 1

@ccpvtz-f12.gbs
