%mem=500mw
%nprocs=4
# b3lyp/gen opt freq

ethyl formate, B3LYP/pcseg-2

0 1
C	-2.1858410	-0.2853410	0.0000000
C	-0.7029670	-0.5804430	0.0000000
O	0.0000000	0.6913890	0.0000000
C	1.3378390	0.6381100	0.0000000
O	2.0063090	-0.3599250	0.0000000
H	-2.7455900	-1.2228750	0.0000000
H	-2.4719120	0.2842530	0.8852750
H	-2.4719120	0.2842530	-0.8852750
H	-0.3970860	-1.1458090	-0.8818540
H	-0.3970860	-1.1458090	0.8818540
H	1.7389280	1.6603190	0.0000000

@pcseg2.gbs

