%mem=1000mw
%nprocs=12
# b3lyp/gen opt freq

ethyl methyl amine, B3LYP/pcseg-2

0 1
N          0.531516      -0.475531      -0.073497
C          1.865039       0.101970       0.006381
C         -0.533032       0.515593       0.026360
C         -1.907086      -0.146589      -0.010374
H          0.416314      -1.159885       0.667869
H          2.615148      -0.694406      -0.011012
H          2.040656       0.720814       0.905963
H          2.039086       0.740807      -0.867475
H         -0.446534       1.143738       0.934910
H         -0.430104       1.200884      -0.825854
H         -2.703140       0.603023       0.026342
H         -2.044306      -0.816870       0.846525
H         -2.024838      -0.738719      -0.922400

@pcseg2.gbs

