%mem=1000mw
%nprocs=12
# b3lyp/gen opt freq

ethyl vinyl ether, B3LYP/pcseg-2

0 1
O          0.021226       0.680618       0.000000
C         -1.320396       0.518130       0.000000
C          0.818820      -0.498330       0.000000
C         -2.023326      -0.614431       0.000000
C          2.277425      -0.077933       0.000000
H         -1.804853       1.490467       0.000000
H         -3.103983      -0.558703       0.000000
H         -1.576750      -1.599343       0.000000
H          0.579103      -1.102331       0.886581
H          0.579103      -1.102331      -0.886581
H          2.923152      -0.960979       0.000000
H          2.507015       0.519707      -0.886494
H          2.507015       0.519707       0.886494

@pcseg2.gbs

