%chk=EtOMe.chk
%mem=500mw
%nprocs=4
# b3lyp/gen opt freq CPHF(Grid=OneStep)

methoxyethane, B3LYP/pcseg-2

0 1
C      -1.313375    -1.253167     0.000000
O      -0.012169    -0.710683     0.000000
C       0.000000     0.705929     0.000000
C       1.436348     1.185410     0.000000
H      -1.215552    -2.336650     0.000000
H      -1.877174    -0.946735     0.889684
H      -1.877174    -0.946735    -0.889684
H      -0.533083     1.081637    -0.884276
H      -0.533083     1.081637     0.884276
H       1.470978     2.275501     0.000000
H       1.962298     0.823889     0.883319
H       1.962298     0.823889    -0.883319

@pcseg2.gbs

--Link1--
%chk=EtOMe.chk
%mem=500mw
%nprocs=4
# rohf/gen geom=check guess=check

methoxyethane, ROHF/cc-pVTZ-F12

0 1

@ccpvtz-f12.gbs
