%mem=1000mw
%nprocs=12
# b3lyp/gen opt freq

ethyl nitrite, B3LYP/pcseg-2

0 1
C         -0.820227       0.492043       0.000000
O         -0.012090      -0.704292       0.000000
N          1.364953      -0.512478       0.000000
C         -2.270842       0.047148       0.000000
H         -0.569037       1.090059       0.882710
H         -0.569037       1.090059      -0.882710
H         -2.924838       0.924173       0.000000
H         -2.496093      -0.551250       0.886656
H         -2.496093      -0.551250      -0.886656
O          1.706707       0.622298       0.000000

@pcseg2.gbs

