%chk=f2.chk
%mem=500mw
%nprocs=4
# b3lyp/gen opt freq CPHF(Grid=OneStep)

F2, B3LYP/pcseg-2

0 1
F       0.000000     0.000000     0.698948
F       0.000000     0.000000    -0.698948

@pcseg2.gbs

--Link1--
%chk=f2.chk
%mem=500mw
%nprocs=4
# rohf/gen geom=check guess=check

F2, ROHF/cc-pVTZ-F12

0 1

@ccpvtz-f12.gbs
