%chk=fc2h4oh.chk
%mem=500mw
%nprocs=4
# b3lyp/gen opt freq CPHF(Grid=OneStep)

2-fluoroethanol, B3LYP/pcseg-2

0 1
C       0.679326     0.569442     0.288282
C      -0.716046     0.555226    -0.285199
O       1.475353    -0.501603    -0.189936
F      -1.382009    -0.599765     0.156343
H       1.177680     1.490697    -0.017099
H       0.622807     0.563293     1.382614
H      -1.292879     1.418273     0.051713
H      -0.697109     0.517676    -1.374674
H       1.045083    -1.327235     0.051351

@pcseg2.gbs

--Link1--
%chk=fc2h4oh.chk
%mem=500mw
%nprocs=4
# rohf/gen geom=check guess=check

2-fluoroethanol, ROHF/cc-pVTZ-F12

0 1

@ccpvtz-f12.gbs
