%chk=fluorene.chk
%mem=1000mw
%nprocs=4
# b3lyp/gen opt freq CPHF(Grid=OneStep)

Fluorene, B3LYP/pcseg-2

0 1
C       0.000000     0.000000     1.825479
C      -0.000000     1.181034     0.882830
C      -0.000000    -1.181034     0.882830
C      -0.000000     0.733107    -0.449218
C      -0.000000    -0.733107    -0.449218
C      -0.000000     2.536534     1.168005
C      -0.000000    -2.536534     1.168005
C      -0.000000     3.449869     0.115001
C      -0.000000    -3.449869     0.115001
C      -0.000000     3.006943    -1.206590
C      -0.000000    -3.006943    -1.206590
C      -0.000000     1.647218    -1.498791
C      -0.000000    -1.647218    -1.498791
H       0.876685    -0.000000     2.479370
H      -0.876685     0.000000     2.479370
H      -0.000000     2.888030     2.192156
H      -0.000000    -2.888030     2.192156
H      -0.000000     4.511113     0.324430
H      -0.000000    -4.511113     0.324430
H      -0.000000     3.728904    -2.012250
H      -0.000000    -3.728904    -2.012250
H      -0.000000     1.311663    -2.527567
H      -0.000000    -1.311663    -2.527567

@pcseg2.gbs

--Link1--
%chk=fluorene.chk
%mem=1000mw
%nprocs=4
# rohf/gen geom=check guess=check

Fluorene, ROHF/cc-pVTZ-F12

0 1

@ccpvtz-f12.gbs
