%chk=fo.chk
%mem=500mw
%nprocs=4
# b3lyp/gen opt freq CPHF(Grid=OneStep)

oxygen monofluoride, B3LYP/pcseg-2

0 2
O       0.000000     0.000000    -0.714845
F       0.000000     0.000000     0.635418

@pcseg2.gbs

--Link1--
%chk=fo.chk
%mem=500mw
%nprocs=4
# rohf/gen geom=check guess=check

oxygen monofluoride, ROHF/cc-pVTZ-F12

0 2

@ccpvtz-f12.gbs
