%chk=foo.chk
%mem=500mw
%nprocs=4
# b3lyp/gen opt freq CPHF(Grid=OneStep)

fluoroperoxyl, B3LYP/pcseg-2

0 2
O       1.134225     0.215909    -0.000000
O       0.000000     0.568920     0.000000
F      -1.008200    -0.697626     0.000000

@pcseg2.gbs

--Link1--
%chk=foo.chk
%mem=500mw
%nprocs=4
# rohf/gen geom=check guess=check

fluoroperoxyl, ROHF/cc-pVTZ-F12

0 2

@ccpvtz-f12.gbs
