%chk=h2.chk
%mem=500mw
%nprocs=4
# b3lyp/gen opt freq CPHF(Grid=OneStep)

H2, B3LYP/pcseg-2

0 1
H       0.000000     0.000000     0.371937
H       0.000000     0.000000    -0.371937

@pcseg2.gbs

--Link1--
%chk=h2.chk
%mem=500mw
%nprocs=4
# rohf/gen geom=check guess=check

H2, ROHF/cc-pVTZ-F12

0 1

@ccpvtz-f12.gbs
