%chk=h2o2.chk
%mem=500mw
%nprocs=4
# b3lyp/gen opt freq CPHF(Grid=OneStep)

hydrogen peroxide, B3LYP/pcseg-2

0 1
O       0.000000     0.725426    -0.055676
O      -0.000000    -0.725426    -0.055676
H       0.805701     0.902841     0.445412
H      -0.805701    -0.902841     0.445412

@pcseg2.gbs

--Link1--
%chk=h2o2.chk
%mem=500mw
%nprocs=4
# rohf/gen geom=check guess=check

hydrogen peroxide, ROHF/cc-pVTZ-F12

0 1

@ccpvtz-f12.gbs
