%chk=h2so4.chk
%mem=500mw
%nprocs=4
# b3lyp/gen opt freq CPHF(Grid=OneStep)

sulfuric acid, B3LYP/pcseg-2

0 1
S       0.000000     0.000000     0.159370
O       0.000000     1.257361     0.827685
O      -0.000000    -1.257361     0.827685
O       1.241341    -0.046026    -0.846156
O      -1.241341     0.046026    -0.846156
H      -1.457600    -0.854220    -1.127192
H       1.457600     0.854220    -1.127192

@pcseg2.gbs

--Link1--
%chk=h2so4.chk
%mem=500mw
%nprocs=4
# rohf/gen geom=check guess=check

sulfuric acid, ROHF/cc-pVTZ-F12

0 1

@ccpvtz-f12.gbs
