%mem=500mw
%nprocs=6
# b3lyp/gen opt freq symm=loose

sulfurous acid, B3LYP/pcseg-2

0 1
S	0.2970330	0.3458340	0.0000000
O	-1.0341960	0.9728590	0.0000000
O	0.2970330	-0.7130140	1.2793490
O	0.2970330	-0.7130140	-1.2793490
H	-0.6157450	-0.9539960	1.5164470
H	-0.6157450	-0.9539960	-1.5164470

@pcseg2.gbs

