%chk=h2so3.chk
%mem=500mw
%nprocs=4
# b3lyp/gen opt freq CPHF(Grid=OneStep)

sulfurous acid, B3LYP/pcseg-2

0 1
S       0.295444     0.339768    -0.000000
O      -1.025936     0.957509    -0.000000
O       0.295444    -0.704043     1.259403
O       0.295444    -0.704043    -1.259403
H      -0.623356    -0.915831     1.490403
H      -0.623356    -0.915831    -1.490403

@pcseg2.gbs

--Link1--
%chk=h2so3.chk
%mem=500mw
%nprocs=4
# rohf/gen geom=check guess=check

sulfurous acid, ROHF/cc-pVTZ-F12

0 1

@ccpvtz-f12.gbs
