%chk=hcccl.chk
%mem=500mw
%nprocs=4
# b3lyp/gen opt freq CPHF(Grid=OneStep)

chloroacetylene, B3LYP/pcseg-2

0 1
C       0.000000     0.000000    -1.811530
C       0.000000     0.000000    -0.613966
Cl      0.000000     0.000000     1.025032
H       0.000000     0.000000    -2.872564

@pcseg2.gbs

--Link1--
%chk=hcccl.chk
%mem=500mw
%nprocs=4
# rohf/gen geom=check guess=check

chloroacetylene, ROHF/cc-pVTZ-F12

0 1

@ccpvtz-f12.gbs
