%mem=1000mw
%nprocs=12
# b3lyp/gen opt freq

propargyl chloride, B3LYP/pcseg-2

0 1
C         -2.367734       0.428527       0.000000
C         -1.314575      -0.148883       0.000000
C         -0.059890      -0.864759       0.000000
H         -3.297280       0.942476       0.000000
Cl         1.376342       0.259447       0.000000
H          0.049799      -1.488858       0.888258
H          0.049799      -1.488858      -0.888258

@pcseg2.gbs

