%chk=hcccn.chk
%mem=500mw
%nprocs=4
# b3lyp/gen opt freq CPHF(Grid=OneStep)

cyanoacetylene, B3LYP/pcseg-2

0 1
N       0.000000     0.000000     1.892288
C       0.000000     0.000000     0.737460
C       0.000000     0.000000    -0.631026
C       0.000000     0.000000    -1.831716
H       0.000000     0.000000    -2.894328

@pcseg2.gbs

--Link1--
%chk=hcccn.chk
%mem=500mw
%nprocs=4
# rohf/gen geom=check guess=check

cyanoacetylene, ROHF/cc-pVTZ-F12

0 1

@ccpvtz-f12.gbs
