%mem=1000mw
%nprocs=12
# b3lyp/gen opt freq

2-propynal, B3LYP/pcseg-2

0 1
C          0.680763      -0.446422       0.000000
O          1.583240       0.356187       0.000000
H          0.871247      -1.538204       0.000000
C         -0.720327      -0.092647       0.000000
C         -1.897556       0.159915       0.000000
H         -2.933453       0.399787       0.000000

@pcseg2.gbs

