%chk=hccch2cl.chk
%mem=500mw
%nprocs=4
# b3lyp/gen opt freq CPHF(Grid=OneStep)

propargyl chloride, B3LYP/pcseg-2

0 1
C       2.304501    -0.459970     0.000000
C       1.255018     0.117998     0.000000
C       0.000000     0.832792     0.000000
H       3.233510    -0.973631     0.000000
Cl     -1.434430    -0.286980     0.000000
H      -0.102661     1.453685     0.885777
H      -0.102661     1.453685    -0.885777

@pcseg2.gbs

--Link1--
%chk=hccch2cl.chk
%mem=500mw
%nprocs=4
# rohf/gen geom=check guess=check

propargyl chloride, ROHF/cc-pVTZ-F12

0 1

@ccpvtz-f12.gbs
