%chk=hccnc.chk
%mem=500mw
%nprocs=4
# b3lyp/gen opt freq CPHF(Grid=OneStep)

isocyanoacetylene, B3LYP/pcseg-2

0 1
C       0.000000     0.000000     1.921435
N       0.000000     0.000000     0.745080
C       0.000000     0.000000    -0.560841
C       0.000000     0.000000    -1.759684
H       0.000000     0.000000    -2.821022

@pcseg2.gbs

--Link1--
%chk=hccnc.chk
%mem=500mw
%nprocs=4
# rohf/gen geom=check guess=check

isocyanoacetylene, ROHF/cc-pVTZ-F12

0 1

@ccpvtz-f12.gbs
