%chk=hccn.chk
%mem=500mw
%nprocs=4
# b3lyp/gen opt freq CPHF(Grid=OneStep)

cyanomethylene, B3LYP/pcseg-2

0 3
C       0.097415    -1.205933     0.000000
C      -0.000000     0.083724     0.000000
N      -0.163243     1.271397     0.000000
H       0.558207    -2.166525     0.000000

@pcseg2.gbs

--Link1--
%chk=hccn.chk
%mem=500mw
%nprocs=4
# rohf/gen geom=check guess=check

cyanomethylene, ROHF/cc-pVTZ-F12

0 3

@ccpvtz-f12.gbs
