%mem=1000mw
%nprocs=12
# b3lyp/gen opt=calcall 

cyanomethylene, B3LYP/pcseg-2

0 3
C           1.739485     0.117201    -0.008519
C           0.559996    -0.470753    -0.001195
N          -0.673199    -0.020600     0.016733
H           2.000001     1.155784     0.016390
C          -1.847416     0.184956    -0.012540

@pcseg2.gbs

