%chk=hccoh.chk
%mem=500mw
%nprocs=4
# b3lyp/gen opt freq CPHF(Grid=OneStep)

ethynol, B3LYP/pcseg-2

0 1
C       0.062309     1.318390    -0.000000
C      -0.000000     0.123249    -0.000000
O      -0.150365    -1.175860     0.000000
H       0.123059     2.376313    -0.000000
H       0.706003    -1.619266     0.000000

@pcseg2.gbs

--Link1--
%chk=hccoh.chk
%mem=500mw
%nprocs=4
# rohf/gen geom=check guess=check

ethynol, ROHF/cc-pVTZ-F12

0 1

@ccpvtz-f12.gbs
