%mem=1000mw
%nprocs=12
# b3lyp/gen opt freq

ethynol, B3LYP/pcseg-2

0 1
C         -1.340332       0.003842       0.000000
C         -0.141054       0.010651       0.000000
O          1.165193      -0.063379       0.000000
H         -2.400364       0.009500       0.000000
H          1.546512       0.823817       0.000000

@pcseg2.gbs

