%chk=hclo4.chk
%mem=500mw
%nprocs=4
# b3lyp/gen opt freq CPHF(Grid=OneStep)

perchloric acid, B3LYP/pcseg-2

0 1
Cl     -0.143219     0.009250     0.000000
O      -0.481376     1.387245     0.000000
O       1.520306     0.089565     0.000000
O      -0.481376    -0.696157     1.195576
O      -0.481376    -0.696157    -1.195576
H       1.825297    -0.833214     0.000000

@pcseg2.gbs

--Link1--
%chk=hclo4.chk
%mem=500mw
%nprocs=4
# rohf/gen geom=check guess=check

perchloric acid, ROHF/cc-pVTZ-F12

0 1

@ccpvtz-f12.gbs
