%chk=hco2.chk
%mem=500mw
%nprocs=4
# b3lyp/gen opt freq CPHF(Grid=OneStep)

formate radical, B3LYP/pcseg-2

0 2
C       0.000000     0.000000     0.206896
H       0.000000     0.000000     1.368742
O      -0.000000     1.163406    -0.163132
O      -0.000000    -1.163406    -0.163132

@pcseg2.gbs

--Link1--
%chk=hco2.chk
%mem=500mw
%nprocs=4
# rohf/gen geom=check guess=check

formate radical, ROHF/cc-pVTZ-F12

0 2

@ccpvtz-f12.gbs
