%chk=hco3h.chk
%mem=500mw
%nprocs=4
# b3lyp/gen opt freq CPHF(Grid=OneStep)

peroxyformic acid, B3LYP/pcseg-2

0 1
O       1.187470     0.715330    -0.000000
C       0.000000     0.891731    -0.000000
H      -0.523546     1.852584    -0.000000
O      -0.912533    -0.088278     0.000000
O      -0.291747    -1.384930     0.000000
H       0.658024    -1.139943     0.000000

@pcseg2.gbs

--Link1--
%chk=hco3h.chk
%mem=500mw
%nprocs=4
# rohf/gen geom=check guess=check

peroxyformic acid, ROHF/cc-pVTZ-F12

0 1

@ccpvtz-f12.gbs
