%mem=1000mw
%nprocs=12
# b3lyp/gen opt freq

peroxyformyl, B3LYP/pcseg-2

0 2
C         -0.739041      -0.495486       0.000000
H         -1.117932      -1.527258       0.000000
O         -1.344908       0.517104       0.000000
O          0.675750      -0.609313       0.000000
O          1.294055       0.560173       0.000000

@pcseg2.gbs

