%mem=1000mw
%nprocs=12
# b3lyp/gen opt freq

peroxyformic acid, B3LYP/pcseg-2

0 1
O         -1.271040       0.570458       0.000000
C         -0.742667      -0.510446       0.000000
H         -1.236898      -1.490728       0.000000
O          0.582248      -0.707572       0.000000
O          1.290047       0.540105       0.000000
H          0.537338       1.172756       0.000000

@pcseg2.gbs

