%chk=hcoch2oh.chk
%mem=500mw
%nprocs=4
# b3lyp/gen opt freq CPHF(Grid=OneStep)

hydroxyacetaldehyde, B3LYP/pcseg-2

0 1
C       0.000000     0.928013     0.000000
C       0.925120    -0.257292     0.000000
O      -1.348939     0.558151     0.000000
O       0.515287    -1.391047     0.000000
H      -1.374167    -0.409292     0.000000
H       0.242590     1.540903     0.879198
H       0.242590     1.540903    -0.879198
H       2.007485    -0.033674     0.000000

@pcseg2.gbs

--Link1--
%chk=hcoch2oh.chk
%mem=500mw
%nprocs=4
# rohf/gen geom=check guess=check

hydroxyacetaldehyde, ROHF/cc-pVTZ-F12

0 1

@ccpvtz-f12.gbs
