%chk=hexadiene15.chk
%mem=1000mw
%nprocs=4
# b3lyp/gen opt freq CPHF(Grid=OneStep)

1,5-hexadiene, B3LYP/pcseg-2

0 1
C       0.420769     0.646656    -0.285864
C      -0.420769    -0.646656    -0.285864
H       1.084915     0.627011    -1.156909
H       1.061836     0.664560     0.597699
H      -1.084915    -0.627011    -1.156909
H      -1.061836    -0.664560     0.597699
C      -0.420769     1.885767    -0.334176
H      -1.071413     1.982028    -1.199778
C      -0.433554     2.841560     0.586472
H       0.195526     2.789073     1.467214
H      -1.069083     3.711857     0.493178
C       0.420769    -1.885767    -0.334176
H       1.071413    -1.982028    -1.199778
C       0.433554    -2.841560     0.586472
H      -0.195526    -2.789073     1.467214
H       1.069083    -3.711857     0.493178

@pcseg2.gbs

--Link1--
%chk=hexadiene15.chk
%mem=1000mw
%nprocs=4
# rohf/gen geom=check guess=check

1,5-hexadiene, ROHF/cc-pVTZ-F12

0 1

@ccpvtz-f12.gbs
