%chk=hexane.chk
%mem=1000mw
%nprocs=4
# b3lyp/gen opt freq CPHF(Grid=OneStep)

n-hexane, B3LYP/pcseg-2

0 1
C       1.409942     2.897556     0.000000
C      -1.409942    -2.897556     0.000000
C       0.005553     0.764388     0.000000
C      -0.005553    -0.764388     0.000000
C      -1.409942    -1.369687     0.000000
C       1.409942     1.369687     0.000000
H      -2.424797    -3.297559     0.000000
H       2.424797     3.297559     0.000000
H       0.898575     3.291781     0.880556
H       0.898575     3.291781    -0.880556
H      -0.898575    -3.291781    -0.880556
H      -0.898575    -3.291781     0.880556
H       1.958302     1.005193    -0.873866
H       1.958302     1.005193     0.873866
H      -1.958302    -1.005193    -0.873866
H      -1.958302    -1.005193     0.873866
H      -0.543391     1.129871     0.874471
H      -0.543391     1.129871    -0.874471
H       0.543391    -1.129871    -0.874471
H       0.543391    -1.129871     0.874471

@pcseg2.gbs

--Link1--
%chk=hexane.chk
%mem=1000mw
%nprocs=4
# rohf/gen geom=check guess=check

n-hexane, ROHF/cc-pVTZ-F12

0 1

@ccpvtz-f12.gbs
