%mem=1000mw
%nprocs=12
# b3lyp/gen opt freq

1,5-hexadiene, B3LYP/pcseg-2

0 1
C          0.574847       0.284734      -0.517173
C         -0.574847       0.284734       0.517173
H          0.450444       1.158528      -1.173271
H          0.490621      -0.601307      -1.156260
H         -0.450444       1.158528       1.173271
H         -0.490621      -0.601307       1.156260
C          1.930528       0.330211       0.126340
H          2.122474       1.200153       0.755330
C          2.875572      -0.595618      -0.002493
H          2.727209      -1.479707      -0.616740
H          3.836144      -0.507803       0.494158
C         -1.930528       0.330211      -0.126340
H         -2.122474       1.200153      -0.755330
C         -2.875572      -0.595618       0.002493
H         -2.727209      -1.479707       0.616740
H         -3.836144      -0.507803      -0.494158

@pcseg2.gbs

