%mem=1000MW
%nprocs=12
# opt freq b3lyp/gen 

1,4-hexadiyne, B3LYP/pcseg-2

0 1
 C                 -2.80070632    0.89860213    0.00000000
 C                 -1.94699093    0.05448872    0.00000000
 C                 -0.91677630   -0.98673657    0.00000000
 C                  0.45012369   -0.46147393    0.00000000
 C                  1.57444967   -0.03479225    0.00000000
 C                  2.93386340    0.48585714    0.00000000
 H                 -3.55158319    1.64918913    0.00000000
 H                 -1.06268703   -1.63613017   -0.87453385
 H                 -1.06268703   -1.63613017    0.87453385
 H                  3.48829002    0.15303164    0.88430497
 H                  2.93660997    1.58133934    0.00000000
 H                  3.48829002    0.15303164   -0.88430497

@pcseg2.gbs

