%mem=1000MW
%nprocs=12
# opt freq b3lyp/gen 

1,3-hexadiyne, B3LYP/pcseg-2

0 1
 C                 -3.33172916    0.24702692    0.00000000
 C                 -2.14089998    0.04568975    0.00000000
 C                 -0.79924688   -0.18219533    0.00000000
 C                  0.39437617   -0.38357207    0.00000000
 C                  1.83218546   -0.60718758    0.00000000
 C                  2.64796435    0.70012909    0.00000000
 H                 -4.37810832    0.42535404    0.00000000
 H                  2.10208603   -1.21050899    0.87673832
 H                  2.10208603   -1.21050899   -0.87673832
 H                  3.71840150    0.47564326    0.00000000
 H                  2.41981750    1.30033803    0.88451595
 H                  2.41981750    1.30033803   -0.88451595

@pcseg2.gbs

