%chk=hoc2h4oh.chk
%mem=500mw
%nprocs=4
# b3lyp/gen opt freq CPHF(Grid=OneStep)

ethylene glycol, B3LYP/pcseg-2

0 1
C       0.435664     0.619989     0.000000
C      -0.435664    -0.619989     0.000000
O       0.435664    -1.746590     0.000000
O      -0.435664     1.746590     0.000000
H      -0.089717    -2.548947     0.000000
H       0.089717     2.548947     0.000000
H      -1.077239    -0.610944     0.886573
H      -1.077239    -0.610944    -0.886573
H       1.077239     0.610944     0.886573
H       1.077239     0.610944    -0.886573

@pcseg2.gbs

--Link1--
%chk=hoc2h4oh.chk
%mem=500mw
%nprocs=4
# rohf/gen geom=check guess=check

ethylene glycol, ROHF/cc-pVTZ-F12

0 1

@ccpvtz-f12.gbs
