%mem=1000mw
%nprocs=12
# b3lyp/gen opt freq

ethylene glycol, B3LYP/pcseg-2

0 1
C	0.0000000	0.7574190	0.0000000
C	0.0000000	-0.7574190	0.0000000
O	1.3608940	-1.1746280	0.0000000
O	-1.3608940	1.1746280	0.0000000
H	1.3858520	-2.1364170	0.0000000
H	-1.3858520	2.1364170	0.0000000
H	-0.5361890	-1.1154770	0.8890230
H	-0.5361890	-1.1154770	-0.8890230
H	0.5361890	1.1154770	0.8890230
H	0.5361890	1.1154770	-0.8890230

@pcseg2.gbs

