%mem=1000mw
%nprocs=12
# b3lyp/gen opt freq

chloric acid (HO-ClO2), B3LYP/pcseg-2

0 1
Cl         0.139607      -0.011449      -0.329675
O         -1.491045       0.333019       0.113796
O          0.359909      -1.331250       0.254754
O          0.927066       1.035321       0.293795
H         -1.605248      -0.191399       0.926966

@pcseg2.gbs

