%chk=hocn.chk
%mem=500mw
%nprocs=4
# b3lyp/gen opt freq CPHF(Grid=OneStep)

cyanic acid, B3LYP/pcseg-2

0 1
N       0.047219     1.332916    -0.000000
C      -0.000000     0.180997    -0.000000
O      -0.132456    -1.108735     0.000000
H       0.729112    -1.546517     0.000000

@pcseg2.gbs

--Link1--
%chk=hocn.chk
%mem=500mw
%nprocs=4
# rohf/gen geom=check guess=check

cyanic acid, ROHF/cc-pVTZ-F12

0 1

@ccpvtz-f12.gbs
