%mem=1000mw
%nprocs=12
# b3lyp/gen opt freq

bicarbonate radical, B3LYP/pcseg-2

0 2
C          0.026983       0.003325       0.000000
O         -1.292405      -0.127697       0.000000
O          0.623993       1.096016       0.000000
O          0.754541      -1.018503       0.000000
H         -1.688212       0.756848       0.000000

@pcseg2.gbs

