%chk=hoco2.chk
%mem=500mw
%nprocs=4
# b3lyp/gen opt freq CPHF(Grid=OneStep)

bicarbonate radical, B3LYP/pcseg-2

0 2
C       0.000000     0.055228    -0.000000
O      -0.330239    -1.227706     0.000000
O       1.169316     0.477931    -0.000000
O      -0.898356     0.929059    -0.000000
H       0.474223    -1.765634     0.000000

@pcseg2.gbs

--Link1--
%chk=hoco2.chk
%mem=500mw
%nprocs=4
# rohf/gen geom=check guess=check

bicarbonate radical, ROHF/cc-pVTZ-F12

0 2

@ccpvtz-f12.gbs
