%chk=honc.chk
%mem=500mw
%nprocs=4
# b3lyp/gen opt freq CPHF(Grid=OneStep)

isofulminic acid, B3LYP/pcseg-2

0 1
N       0.000000     0.240463     0.000000
O       0.033271    -1.087839     0.000000
C      -0.206355     1.391050    -0.000000
H       0.971966    -1.326827     0.000000

@pcseg2.gbs

--Link1--
%chk=honc.chk
%mem=500mw
%nprocs=4
# rohf/gen geom=check guess=check

isofulminic acid, ROHF/cc-pVTZ-F12

0 1

@ccpvtz-f12.gbs
