%chk=hono.chk
%mem=500mw
%nprocs=4
# b3lyp/gen opt freq CPHF(Grid=OneStep)

nitrous acid, B3LYP/pcseg-2

0 1
H       1.761879    -0.182814     0.000000
O       0.890058    -0.602240     0.000000
N       0.000000     0.518342     0.000000
O      -1.110293     0.171542     0.000000

@pcseg2.gbs

--Link1--
%chk=hono.chk
%mem=500mw
%nprocs=4
# rohf/gen geom=check guess=check

nitrous acid, ROHF/cc-pVTZ-F12

0 1

@ccpvtz-f12.gbs
