%mem=1000mw
%nprocs=12
# b3lyp/gen opt freq

peroxynitrous acid, B3LYP/pcseg-2

0 1
O          1.170067      -0.591908       0.000000
N          0.810530       0.541711       0.000000
O         -0.558008       0.704825       0.000000
O         -1.286996      -0.513611       0.000000
H         -0.550037      -1.167422       0.000000

@pcseg2.gbs

