%chk=hoono2.chk
%mem=500mw
%nprocs=4
# b3lyp/gen opt freq CPHF(Grid=OneStep)

peroxynitric acid, B3LYP/pcseg-2

0 1
N       0.632804     0.078487     0.000462
O      -0.624543    -0.776417     0.047339
O      -1.750170     0.032650    -0.134580
O       1.594754    -0.618491    -0.011816
O       0.472636     1.254186     0.002891
H      -1.971041     0.315179     0.766098

@pcseg2.gbs

--Link1--
%chk=hoono2.chk
%mem=500mw
%nprocs=4
# rohf/gen geom=check guess=check

peroxynitric acid, ROHF/cc-pVTZ-F12

0 1

@ccpvtz-f12.gbs
