%mem=1000mw
%nprocs=12
# b3lyp/gen opt freq

iso-butyl, B3LYP/pcseg-2

0 2
C	0.0000000	0.3534280	0.0000000
C	1.4790530	0.1479870	0.0000000
H	-0.1949830	1.4424930	0.0000000
H	2.0421670	0.1511910	0.9270210
H	2.0421670	0.1511910	-0.9270210
C	-0.6534300	-0.2150800	-1.2704120
C	-0.6534300	-0.2150800	1.2704120
H	-0.5232470	-1.3003360	-1.3236060
H	-1.7264210	-0.0035430	-1.2913550
H	-0.2115860	0.2176770	-2.1726590
H	-0.5232470	-1.3003360	1.3236060
H	-1.7264210	-0.0035430	1.2913550
H	-0.2115860	0.2176770	2.1726590

@pcseg2.gbs

