%mem=1000mw
%nprocs=12
# b3lyp/gen opt freq

2-methylpentane, B3LYP/pcseg-2

0 1
C         -1.171497       0.000000       0.448101
C         -1.628988       1.266211      -0.290854
C         -1.628988      -1.266211      -0.290854
H         -1.670541       0.000000       1.427494
H         -1.314355       2.172706       0.237738
H         -2.720243       1.293340      -0.379571
H         -1.219149       1.312781      -1.305646
H         -1.314355      -2.172706       0.237738
H         -1.219149      -1.312781      -1.305646
H         -2.720243      -1.293340      -0.379571
C          0.343890       0.000000       0.744168
H          0.576559       0.876742       1.364635
H          0.576559      -0.876742       1.364635
C          1.280307       0.000000      -0.472009
H          1.078707      -0.876808      -1.099181
H          1.078707       0.876808      -1.099181
C          2.758510       0.000000      -0.069472
H          3.413308       0.000000      -0.946676
H          3.005518      -0.883285       0.530350
H          3.005518       0.883285       0.530350

@pcseg2.gbs

