%chk=ipentane.chk
%mem=1000mw
%nprocs=4
# b3lyp/gen opt freq CPHF(Grid=OneStep)

2-methylbutane (isopentane), B3LYP/pcseg-2

0 1
C       2.097053    -0.032307    -0.116371
C       0.763787    -0.657426     0.294000
C      -0.480634    -0.002736    -0.327155
H       2.934809    -0.587236     0.308078
H       2.186902     1.000262     0.221836
H       2.215412    -0.036810    -1.202167
H       0.667349    -0.632167     1.384838
H       0.770724    -1.715462     0.016953
H      -0.343763    -0.003829    -1.415049
C      -0.663588     1.450619     0.121171
C      -1.734601    -0.823912    -0.013197
H      -0.784357     1.507923     1.206244
H      -1.553287     1.889710    -0.333269
H       0.186375     2.075440    -0.152704
H      -1.915973    -0.860079     1.064062
H      -2.620018    -0.391582    -0.482328
H      -1.636268    -1.851598    -0.367181

@pcseg2.gbs

--Link1--
%chk=ipentane.chk
%mem=1000mw
%nprocs=4
# rohf/gen geom=check guess=check

2-methylbutane (isopentane), ROHF/cc-pVTZ-F12

0 1

@ccpvtz-f12.gbs
