%mem=1000mw
%nprocs=12
# b3lyp/gen opt freq

2-methylbutane (isopentane), B3LYP/pcseg-2

0 1
C         -2.100896      -0.011647       0.119512
C         -0.771220      -0.651064      -0.292842
C          0.481147      -0.000665       0.323817
H         -2.947897      -0.563525      -0.300375
H         -2.183061       1.023683      -0.225241
H         -2.216143      -0.008083       1.209549
H         -0.678273      -0.632288      -1.388018
H         -0.785752      -1.711784      -0.010518
H          0.349462       0.000097       1.416252
C          0.669721       1.454353      -0.128051
C          1.731673      -0.830156       0.002506
H          0.783395       1.511777      -1.217736
H          1.568328       1.890705       0.320787
H         -0.177867       2.086427       0.152165
H          1.908171      -0.868333      -1.079431
H          2.625539      -0.401088       0.467560
H          1.629963      -1.861091       0.358032

@pcseg2.gbs

