%chk=iPrNH2.chk
%mem=500mw
%nprocs=4
# b3lyp/gen opt freq CPHF(Grid=OneStep)

isopropylamine, B3LYP/pcseg-2

0 1
C       0.291590     0.213683     0.000000
N      -0.907206     1.063422     0.000000
H       1.215084     0.811985    -0.000000
C       0.291590    -0.642743     1.262559
C       0.291590    -0.642743    -1.262559
H      -0.927366     1.663430    -0.815233
H      -0.927366     1.663430     0.815233
H      -0.597023    -1.274948     1.291567
H      -0.597023    -1.274948    -1.291567
H       1.175618    -1.280443     1.300110
H       1.175618    -1.280443    -1.300110
H       0.292134    -0.020602     2.159996
H       0.292134    -0.020602    -2.159996

@pcseg2.gbs

--Link1--
%chk=iPrNH2.chk
%mem=500mw
%nprocs=4
# rohf/gen geom=check guess=check

isopropylamine, ROHF/cc-pVTZ-F12

0 1

@ccpvtz-f12.gbs
