%mem=1000mw
%nprocs=12
# b3lyp/gen opt freq

2-propanol, B3LYP/pcseg-2

0 1
C	0.0024210	0.0371420	0.3630000
C	-1.1953200	-0.7845440	-0.1031100
C	1.3288820	-0.5490800	-0.0894180
O	-0.0505050	1.3731330	-0.1629530
H	-0.0061890	0.0841270	1.4610150
H	-2.1353140	-0.3339060	0.2281900
H	-1.2130930	-0.8460600	-1.1934600
H	-1.1557290	-1.7985130	0.3022620
H	2.1560030	0.0761230	0.2489140
H	1.4650780	-1.5539410	0.3152700
H	1.3658220	-0.6048160	-1.1795910
H	-0.8884450	1.7708140	0.0981970

@pcseg2.gbs

