%chk=iproh.chk
%mem=500mw
%nprocs=4
# b3lyp/gen opt freq CPHF(Grid=OneStep)

2-propanol, B3LYP/pcseg-2

0 1
C       0.002121     0.038048     0.362394
C      -1.191948    -0.787443    -0.102693
C       1.329375    -0.545349    -0.089337
O      -0.054871     1.371396    -0.162346
H      -0.006231     0.086819     1.458806
H      -2.131761    -0.337034     0.224480
H      -1.206640    -0.854365    -1.191438
H      -1.150280    -1.798044     0.306973
H       2.154831     0.079736     0.249101
H       1.465909    -1.548788     0.314634
H       1.366900    -0.601040    -1.178188
H      -0.891044     1.770016     0.092214

@pcseg2.gbs

--Link1--
%chk=iproh.chk
%mem=500mw
%nprocs=4
# rohf/gen geom=check guess=check

2-propanol, ROHF/cc-pVTZ-F12

0 1

@ccpvtz-f12.gbs
