%mem=1000mw
%nprocs=12
# b3lyp/gen opt freq

isobutene, B3LYP/pcseg-2

0 1
C	0.0000000	0.0000000	0.1249770
C	0.0000000	0.0000000	1.4571730
H	0.0000000	0.9231570	2.0284570
H	0.0000000	-0.9231570	2.0284570
C	0.0000000	1.2750750	-0.6783510
C	0.0000000	-1.2750750	-0.6783510
H	0.0000000	2.1598960	-0.0367220
H	0.8787700	1.3262730	-1.3340390
H	-0.8787700	1.3262730	-1.3340390
H	0.0000000	-2.1598960	-0.0367220
H	-0.8787700	-1.3262730	-1.3340390
H	0.8787700	-1.3262730	-1.3340390

@pcseg2.gbs

