%mem=1000mw
%nprocs=12
# b3lyp/gen opt freq

2-methyl-1,3-butadiene, B3LYP/pcseg-2

0 1
C	-0.5851970	1.7305050	0.0000000
C	0.0000000	0.5250740	0.0000000
C	-0.8246140	-0.6857460	0.0000000
C	-0.3776810	-1.9447060	0.0000000
C	1.5001380	0.3762090	0.0000000
H	-1.6655570	1.8353260	0.0000000
H	-0.0071250	2.6483560	0.0000000
H	-1.8991860	-0.5104950	0.0000000
H	0.6798820	-2.1855330	0.0000000
H	-1.0622280	-2.7855180	0.0000000
H	1.9935050	1.3507280	0.0000000
H	1.8424180	-0.1804360	0.8801430
H	1.8424180	-0.1804360	-0.8801430

@pcseg2.gbs

