%chk=isoprene.chk
%mem=500mw
%nprocs=4
# b3lyp/gen opt freq CPHF(Grid=OneStep)

2-methyl-1,3-butadiene, B3LYP/pcseg-2

0 1
C      -0.590379     1.724998     0.000000
C       0.000000     0.523821     0.000000
C      -0.821594    -0.688115     0.000000
C      -0.371575    -1.943997     0.000000
C       1.497875     0.382972     0.000000
H      -1.668189     1.822683     0.000000
H      -0.016438     2.641619     0.000000
H      -1.893636    -0.519276     0.000000
H       0.683541    -2.181497     0.000000
H      -1.054839    -2.781578     0.000000
H       1.981945     1.357553     0.000000
H       1.840828    -0.168787     0.877830
H       1.840828    -0.168787    -0.877830

@pcseg2.gbs

--Link1--
%chk=isoprene.chk
%mem=500mw
%nprocs=4
# rohf/gen geom=check guess=check

2-methyl-1,3-butadiene, ROHF/cc-pVTZ-F12

0 1

@ccpvtz-f12.gbs
