%mem=1000mw
%nprocs=12
# b3lyp/gen opt freq

isourea, B3LYP/pcseg-2

0 1
C         -0.052661      -0.093574       0.003729
O         -0.343690       1.228967       0.003836
N          1.314134      -0.276483      -0.048090
N         -0.989771      -0.954393       0.004105
H          1.650417      -1.167789       0.277398
H          1.867240       0.511354       0.253242
H         -0.634182      -1.906831      -0.007873
H         -1.308657       1.275059      -0.016895

@pcseg2.gbs

