%mem=1000mw
%nprocs=12
# b3lyp/gen opt freq

3-chlorophenyl, B3LYP/pcseg-2

0 2
C         -2.390632       0.091401       0.000000
H         -3.474112       0.122094       0.000000
C         -1.605519       1.217932       0.000000
C         -1.710667      -1.134416       0.000000
H         -2.273236      -2.063029       0.000000
C         -0.233321       1.257989       0.000000
C         -0.317831      -1.177429       0.000000
H          0.338731       2.177758       0.000000
H          0.207373      -2.124201       0.000000
C          0.405966       0.012180       0.000000
Cl         2.158092      -0.037454       0.000000

@pcseg2.gbs

