%chk=mC6H4Cl.chk
%mem=500mw
%nprocs=4
# b3lyp/gen opt freq CPHF(Grid=OneStep)

3-chlorophenyl, B3LYP/pcseg-2

0 2
C      -0.265336    -2.310754    -0.000000
H      -0.379397    -3.385774    -0.000000
C      -1.332334    -1.452036    -0.000000
C       1.000664    -1.716782     0.000000
H       1.886294    -2.338897     0.000000
C      -1.282091    -0.083900    -0.000000
C       1.134704    -0.332415     0.000000
H      -2.161395     0.544005    -0.000000
H       2.112880     0.124562     0.000000
C       0.000000     0.470908     0.000000
Cl      0.176940     2.212117     0.000000

@pcseg2.gbs

--Link1--
%chk=mC6H4Cl.chk
%mem=500mw
%nprocs=4
# rohf/gen geom=check guess=check

3-chlorophenyl, ROHF/cc-pVTZ-F12

0 2

@ccpvtz-f12.gbs
