%chk=Me2NCH2.chk
%mem=500mw
%nprocs=4
# b3lyp/gen opt freq CPHF(Grid=OneStep)

dimethylamino methyl, B3LYP/pcseg-2

0 2
N       0.171012     0.140252     0.000000
C      -0.526268     1.329456     0.000000
C       0.171012    -0.638167     1.222308
C       0.171012    -0.638167    -1.222308
H      -0.577352     1.871800    -0.931428
H      -0.577352     1.871800     0.931428
H      -0.775707    -1.176869     1.370608
H       0.325372     0.020991     2.075092
H       0.981872    -1.366170     1.197563
H      -0.775707    -1.176869    -1.370608
H       0.325372     0.020991    -2.075092
H       0.981872    -1.366170    -1.197563

@pcseg2.gbs

--Link1--
%chk=Me2NCH2.chk
%mem=500mw
%nprocs=4
# rohf/gen geom=check guess=check

dimethylamino methyl, ROHF/cc-pVTZ-F12

0 2

@ccpvtz-f12.gbs
