%mem=1000mw
%nprocs=12
# b3lyp/gen opt freq

dimethylamino methyl, B3LYP/pcseg-2

0 2
N          0.000000       0.058018      -0.205445
C          0.000000       1.410895       0.097712
C          1.220494      -0.680844       0.050238
C         -1.220494      -0.680844       0.050238
H         -0.930228       1.939123      -0.080070
H          0.930228       1.939123      -0.080070
H          1.370481      -0.896995       1.121665
H          2.080751      -0.105668      -0.305103
H          1.195013      -1.632462      -0.489126
H         -1.370481      -0.896995       1.121665
H         -2.080751      -0.105668      -0.305103
H         -1.195013      -1.632462      -0.489126

@pcseg2.gbs

