%mem=1000mw
%nprocs=12
# b3lyp/gen opt freq

dimethylaminyl, B3LYP/pcseg-2

0 2
N          0.000000       0.582733       0.000000
C          1.190926      -0.225055       0.000000
C         -1.190926      -0.225055       0.000000
H          2.083332       0.406574       0.000000
H          1.229229      -0.887617       0.882077
H          1.229229      -0.887617      -0.882077
H         -2.083332       0.406574       0.000000
H         -1.229229      -0.887617       0.882077
H         -1.229229      -0.887617      -0.882077

@pcseg2.gbs

