%mem=1000mw
%nprocs=12
# b3lyp/gen opt=tight freq

dimethylsilanone, B3LYP/pcseg-2

0 1
O    -0.000000   -0.000000    1.716697
Si    0.000000    0.000000    0.194032
C    -0.010000    1.550058   -0.840222
C     0.010000   -1.550058   -0.840222
H     0.180000    2.433402   -0.204941
H    -0.180000   -2.433402   -0.204941
H    -1.003240    1.664458   -1.334368
H     1.003240   -1.664458   -1.334368
H     0.753240    1.494458   -1.644368
H    -0.753240   -1.494458   -1.644368

@pcseg2.gbs

