%chk=me2sio.chk
%mem=500mw
%nprocs=4
# b3lyp/gen opt freq CPHF(Grid=OneStep)

dimethylsilanone, B3LYP/pcseg-2

0 1
O      -0.000000    -0.000000     1.716200
Si     -0.000000    -0.000000     0.193567
C       0.000000     1.550387    -0.840136
C      -0.000000    -1.550387    -0.840136
H       0.160829     2.426610    -0.215280
H      -0.160829    -2.426610    -0.215280
H      -0.959018     1.660282    -1.352829
H       0.959018    -1.660282    -1.352829
H       0.772453     1.509443    -1.610845
H      -0.772453    -1.509443    -1.610845

@pcseg2.gbs

--Link1--
%chk=me2sio.chk
%mem=500mw
%nprocs=4
# rohf/gen geom=check guess=check

dimethylsilanone, ROHF/cc-pVTZ-F12

0 1

@ccpvtz-f12.gbs
