%mem=1000mw
%nprocs=12
# b3lyp/gen opt freq

trimethylsilanol, B3LYP/pcseg-2

0 1
Si         0.006203       0.000000      -0.001283
O         -0.399494       0.000000       1.609688
C         -1.631398       0.000000      -0.907944
C          1.004207      -1.533177      -0.438434
C          1.004207       1.533177      -0.438434
H         -1.485751       0.000000      -1.993582
H         -2.223586      -0.884089      -0.651006
H         -2.223586       0.884089      -0.651006
H          1.247775      -1.552628      -1.506879
H          1.952147      -1.575508       0.110034
H          0.447077      -2.447328      -0.208257
H          1.247775       1.552628      -1.506879
H          1.952147       1.575508       0.110034
H          0.447077       2.447328      -0.208257
H          0.317948       0.000000       2.245956

@pcseg2.gbs

