%mem=1000mw
%nprocs=12
# b3lyp/gen opt freq

trimethylsilyl, B3LYP/pcseg-2

0 2
Si         0.000000       0.000000       0.383483
C          0.000000       1.796467      -0.212316
C          1.555786      -0.898233      -0.212316
C         -1.555786      -0.898233      -0.212316
H          0.000000       1.844435      -1.309295
H          0.883953       2.333814       0.144426
H         -0.883953       2.333814       0.144426
H          1.597327      -0.922217      -1.309295
H          1.579166      -1.932433       0.144426
H          2.463119      -0.401382       0.144426
H         -1.597327      -0.922217      -1.309295
H         -2.463119      -0.401382       0.144426
H         -1.579166      -1.932433       0.144426

@pcseg2.gbs

