%chk=me3si.chk
%mem=500mw
%nprocs=4
# b3lyp/gen opt freq CPHF(Grid=OneStep)

trimethylsilyl, B3LYP/pcseg-2

0 2
Si      0.000000     0.000000     0.420162
C       0.000000     1.792279    -0.175098
C       1.552159    -0.896140    -0.175098
C      -1.552159    -0.896140    -0.175098
H       0.000000     1.835274    -1.269192
H       0.881417     2.327802     0.179512
H      -0.881417     2.327802     0.179512
H       1.589394    -0.917637    -1.269192
H       1.575227    -1.927230     0.179512
H       2.456644    -0.400572     0.179512
H      -1.589394    -0.917637    -1.269192
H      -2.456644    -0.400572     0.179512
H      -1.575227    -1.927230     0.179512

@pcseg2.gbs

--Link1--
%chk=me3si.chk
%mem=500mw
%nprocs=4
# rohf/gen geom=check guess=check

trimethylsilyl, ROHF/cc-pVTZ-F12

0 2

@ccpvtz-f12.gbs
