%chk=mec4h.chk
%mem=500mw
%nprocs=4
# b3lyp/gen opt freq CPHF(Grid=OneStep)

1,3-pentadiyne, B3LYP/pcseg-2

0 1
C       0.000000     0.000000     2.718814
C       0.000000     0.000000     1.513447
C       0.000000     0.000000     0.150166
C       0.000000    -0.000000    -1.056703
C       0.000000    -0.000000    -2.506792
H       0.000000     0.000000     3.779818
H       0.000000     1.019074    -2.897803
H       0.882544    -0.509537    -2.897803
H      -0.882544    -0.509537    -2.897803

@pcseg2.gbs

--Link1--
%chk=mec4h.chk
%mem=500mw
%nprocs=4
# rohf/gen geom=check guess=check

1,3-pentadiyne, ROHF/cc-pVTZ-F12

0 1

@ccpvtz-f12.gbs
