%chk=mec4me.chk
%mem=500mw
%nprocs=4
# b3lyp/gen opt=cart freq CPHF(Grid=OneStep)

2,4-hexadiyne, B3LYP/pcseg-2

0 1
C       0.000000     0.000000     0.681831
C       0.000000     0.000000    -0.681831
C       0.000000     0.000000     1.889376
C       0.000000     0.000000    -1.889376
C       0.000000     0.000000     3.340393
C       0.000000     0.000000    -3.340393
H       0.000000     1.018581     3.733455
H      -0.882117    -0.509291     3.733455
H       0.882117    -0.509291     3.733455
H       0.000000     1.018581    -3.733455
H       0.882117    -0.509291    -3.733455
H      -0.882117    -0.509291    -3.733455

@pcseg2.gbs

--Link1--
%chk=mec4me.chk
%mem=500mw
%nprocs=4
# rohf/gen geom=check guess=check

2,4-hexadiyne, ROHF/cc-pVTZ-F12

0 1

@ccpvtz-f12.gbs
