%mem=1000MW
%nprocs=12
# opt freq b3lyp/gen 

3-methyl-1,4-pentadiyne, B3LYP/pcseg-2

0 1
 C                 -0.43997536    0.36483962    0.00000000
 C                 -0.10314874   -0.38946092    1.21244406
 C                 -0.10314874   -0.38946092   -1.21244406
 C                  0.16305940   -0.98561736    2.22032405
 C                  0.16305940   -0.98561736   -2.22032405
 C                  0.23905217    1.75788733    0.00000000
 H                 -1.52776398    0.52603244    0.00000000
 H                  0.40244825   -1.52171363    3.10513804
 H                  0.40244825   -1.52171363   -3.10513804
 H                  1.32565238    1.64889292    0.00000000
 H                 -0.05808756    2.31653161    0.89078513
 H                 -0.05808756    2.31653161   -0.89078513

@pcseg2.gbs

