%chk=mec5diyne.chk
%mem=500mw
%nprocs=4
# b3lyp/gen opt freq CPHF(Grid=OneStep)

3-methyl-1,4-pentadiyne, B3LYP/pcseg-2

0 1
C      -0.245884     0.515152    -0.000000
C      -0.259936    -0.310540     1.212990
C      -0.259936    -0.310540    -1.212990
C      -0.259936    -0.963223     2.217839
C      -0.259936    -0.963223    -2.217839
C       0.949162     1.496822    -0.000000
H      -1.165633     1.110614     0.000000
H      -0.262810    -1.549251     3.102708
H      -0.262810    -1.549251    -3.102708
H       1.888877     0.948367    -0.000000
H       0.910581     2.126418     0.887223
H       0.910581     2.126418    -0.887223

@pcseg2.gbs

--Link1--
%chk=mec5diyne.chk
%mem=500mw
%nprocs=4
# rohf/gen geom=check guess=check

3-methyl-1,4-pentadiyne, ROHF/cc-pVTZ-F12

0 1

@ccpvtz-f12.gbs
