%chk=mefo.chk
%mem=500mw
%nprocs=4
# b3lyp/gen opt freq CPHF(Grid=OneStep)

methyl formate, B3LYP/pcseg-2

0 1
C       1.368767     0.417706     0.000000
O       0.000000     0.865822     0.000000
C      -0.932314    -0.094144     0.000000
O      -0.725823    -1.275003     0.000000
H       1.970785     1.319892     0.000000
H       1.571357    -0.179036     0.886879
H       1.571357    -0.179036    -0.886879
H      -1.925639     0.370258     0.000000

@pcseg2.gbs

--Link1--
%chk=mefo.chk
%mem=500mw
%nprocs=4
# rohf/gen geom=check guess=check

methyl formate, ROHF/cc-pVTZ-F12

0 1

@ccpvtz-f12.gbs
