%chk=meoacyl.chk
%mem=500mw
%nprocs=4
# b3lyp/gen opt freq CPHF(Grid=OneStep)

methoxycarbonylmethyl, B3LYP/pcseg-2

0 2
C       0.000000     0.540976     0.000000
O       0.580158    -0.686097     0.000000
O      -1.204145     0.708778     0.000000
C       0.977960     1.601713     0.000000
C      -0.321809    -1.799525     0.000000
H       0.305166    -2.685433     0.000000
H      -0.954957    -1.780039     0.885666
H      -0.954957    -1.780039    -0.885666
H       0.625310     2.620143     0.000000
H       2.034438     1.384936     0.000000

@pcseg2.gbs

--Link1--
%chk=meoacyl.chk
%mem=500mw
%nprocs=4
# rohf/gen geom=check guess=check

methoxycarbonylmethyl, ROHF/cc-pVTZ-F12

0 2

@ccpvtz-f12.gbs
