%chk=meoac.chk
%mem=500mw
%nprocs=4
# b3lyp/gen opt freq CPHF(Grid=OneStep)

methyl acetate, B3LYP/pcseg-2

0 1
C       1.127523     1.492058     0.000000
C      -0.000000     0.495766     0.000000
O      -1.173657     0.764945     0.000000
O       0.470837    -0.769521     0.000000
C      -0.519455    -1.809513     0.000000
H       0.721696     2.498390     0.000000
H       1.755628     1.343951     0.878099
H       1.755628     1.343951    -0.878099
H       0.036090    -2.741742     0.000000
H      -1.147444    -1.738906     0.886037
H      -1.147444    -1.738906    -0.886037

@pcseg2.gbs

--Link1--
%chk=meoac.chk
%mem=500mw
%nprocs=4
# rohf/gen geom=check guess=check

methyl acetate, ROHF/cc-pVTZ-F12

0 1

@ccpvtz-f12.gbs
