%mem=500mw
%nprocs=4
# b3lyp/gen opt freq

methoxycarbonylmethyl, B3LYP/pcseg-2

0 2
C         -0.500710      -0.086314       0.000000
O          0.585975       0.728003       0.000000
O         -0.426628      -1.300606       0.000000
C         -1.733569       0.668065       0.000000
C          1.845185       0.051544       0.000000
H          2.604044       0.834303       0.000000
H          1.947123      -0.579704       0.887182
H          1.947123      -0.579704      -0.887182
H         -2.666937       0.122250       0.000000
H         -1.727426       1.749940       0.000000

@pcseg2.gbs

