%mem=1000mw
%nprocs=12
# b3lyp/gen opt freq

methyl vinyl ether, B3LYP/pcseg-2

0 1
O          0.629722       0.641570       0.000000
C         -0.718832       0.540750       0.000000
C          1.357355      -0.573148       0.000000
C         -1.470048      -0.559865       0.000000
H         -1.156933       1.534546       0.000000
H         -2.547270      -0.458178       0.000000
H         -1.065766      -1.562995       0.000000
H          2.414101      -0.301761       0.000000
H          1.131275      -1.170909       0.892367
H          1.131275      -1.170909      -0.892367

@pcseg2.gbs

