%chk=meoc2h3.chk
%mem=500mw
%nprocs=4
# b3lyp/gen opt freq CPHF(Grid=OneStep)

methyl vinyl ether, B3LYP/pcseg-2

0 1
O       0.000000    -0.930752     0.000000
C       0.931314     0.050490     0.000000
C      -1.362277    -0.532541     0.000000
C       0.740021     1.367957     0.000000
H       1.922574    -0.383264     0.000000
H       1.601103     2.017915     0.000000
H      -0.233987     1.831815     0.000000
H      -1.948332    -1.446880     0.000000
H      -1.597853     0.055498     0.890433
H      -1.597853     0.055498    -0.890433

@pcseg2.gbs

--Link1--
%chk=meoc2h3.chk
%mem=500mw
%nprocs=4
# rohf/gen geom=check guess=check

methyl vinyl ether, ROHF/cc-pVTZ-F12

0 1

@ccpvtz-f12.gbs
