%chk=mepy1.chk
%mem=500mw
%nprocs=4
# b3lyp/gen opt freq CPHF(Grid=OneStep)

1-methylpyrrole, B3LYP/pcseg-2

0 1
C       2.069653    -0.000001     0.024618
H       2.457738    -0.882070    -0.480968
H       2.457688     0.882429    -0.480371
H       2.428855    -0.000336     1.055763
C      -1.487606     0.709445     0.014537
H      -2.347382     1.357065     0.021948
C      -1.487604    -0.709447     0.014538
H      -2.347378    -1.357069     0.021950
C      -0.174263    -1.115791    -0.013101
H       0.257481    -2.101461    -0.022933
C      -0.174267     1.115790    -0.013100
H       0.257477     2.101460    -0.022931
N       0.622864     0.000001    -0.036774

@pcseg2.gbs

--Link1--
%chk=mepy1.chk
%mem=500mw
%nprocs=4
# rohf/gen geom=check guess=check

1-methylpyrrole, ROHF/cc-pVTZ-F12

0 1

@ccpvtz-f12.gbs
