%chk=n2.chk
%mem=500mw
%nprocs=4
# b3lyp/gen opt freq CPHF(Grid=OneStep)

N2, B3LYP/pcseg-2

0 1
N       0.000000     0.000000     0.545458
N       0.000000     0.000000    -0.545458

@pcseg2.gbs

--Link1--
%chk=n2.chk
%mem=500mw
%nprocs=4
# rohf/gen geom=check guess=check

N2, ROHF/cc-pVTZ-F12

0 1

@ccpvtz-f12.gbs
