%chk=n2o.chk
%mem=500mw
%nprocs=4
# b3lyp/gen opt freq CPHF(Grid=OneStep)

nitrous oxide, B3LYP/pcseg-2

0 1
N       0.000000     0.000000    -1.194607
N       0.000000     0.000000    -0.073711
O       0.000000     0.000000     1.109778

@pcseg2.gbs

--Link1--
%chk=n2o.chk
%mem=500mw
%nprocs=4
# rohf/gen geom=check guess=check

nitrous oxide, ROHF/cc-pVTZ-F12

0 1

@ccpvtz-f12.gbs
