%mem=1000mw
%nprocs=12
# b3lyp/gen opt freq

naphthalene, B3LYP/pcseg-2

0 1
C	0.0000000	1.2436260	1.4002310
C	0.0000000	2.4296420	0.7074300
C	0.0000000	2.4296420	-0.7074300
C	0.0000000	1.2436260	-1.4002310
C	0.0000000	-1.2436260	-1.4002310
C	0.0000000	-2.4296420	-0.7074300
C	0.0000000	-2.4296420	0.7074300
C	0.0000000	-1.2436260	1.4002310
C	0.0000000	0.0000000	0.7157180
C	0.0000000	0.0000000	-0.7157180
H	0.0000000	1.2431470	2.4865300
H	0.0000000	3.3735050	1.2433100
H	0.0000000	3.3735050	-1.2433100
H	0.0000000	1.2431470	-2.4865300
H	0.0000000	-1.2431470	-2.4865300
H	0.0000000	-3.3735050	-1.2433100
H	0.0000000	-3.3735050	1.2433100
H	0.0000000	-1.2431470	2.4865300

@pcseg2.gbs

