%mem=1000mw
%nprocs=12
# b3lyp/gen opt freq

n-butyl, B3LYP/pcseg-2

0 2
C	-0.4216780	0.6399470	0.0000000
C	0.4216780	-0.6399470	0.0000000
C	0.4216780	1.9180410	0.0000000
C	-0.4216780	-1.9180410	0.0000000
H	-1.0828870	0.6361320	0.8768530
H	-1.0828870	0.6361320	-0.8768530
H	1.0828870	-0.6361320	0.8768530
H	1.0828870	-0.6361320	-0.8768530
H	-0.2071360	2.8140460	0.0000000
H	1.0681440	1.9648740	0.8835620
H	1.0681440	1.9648740	-0.8835620
H	0.2071360	-2.8140460	0.0000000
H	-1.0681440	-1.9648740	0.8835620

@pcseg2.gbs

