%chk=nccn.chk
%mem=500mw
%nprocs=4
# b3lyp/gen opt freq CPHF(Grid=OneStep)

cyanogen, B3LYP/pcseg-2

0 1
C       0.000000     0.000000     0.687886
C       0.000000     0.000000    -0.687886
N       0.000000     0.000000     1.839812
N       0.000000     0.000000    -1.839812

@pcseg2.gbs

--Link1--
%chk=nccn.chk
%mem=500mw
%nprocs=4
# rohf/gen geom=check guess=check

cyanogen, ROHF/cc-pVTZ-F12

0 1

@ccpvtz-f12.gbs
