%chk=ncn.chk
%mem=500mw
%nprocs=4
# b3lyp/gen opt freq CPHF(Grid=OneStep)

cyanoimidogen, B3LYP/pcseg-2

0 3
C       0.000000     0.000000     0.000000
N       0.000000     0.000000     1.223949
N       0.000000     0.000000    -1.223949

@pcseg2.gbs

--Link1--
%chk=ncn.chk
%mem=500mw
%nprocs=4
# rohf/gen geom=check guess=check

cyanoimidogen, ROHF/cc-pVTZ-F12

0 3

@ccpvtz-f12.gbs
