%chk=neohexane.chk
%mem=1000mw
%nprocs=4
# b3lyp/gen opt freq CPHF(Grid=OneStep)

neohexane, B3LYP/pcseg-2

0 1
C       1.909939    -1.068306     0.000000
C       1.170157     0.270247     0.000000
C      -0.377084     0.217818     0.000000
C      -0.899726     1.663627     0.000000
C      -0.899726    -0.498715     1.255297
C      -0.899726    -0.498715    -1.255297
H      -1.991221     1.686273     0.000000
H       2.988323    -0.903422     0.000000
H      -0.530090    -0.019297     2.164312
H      -0.530090    -0.019297    -2.164312
H      -0.596731    -1.545787     1.281459
H      -0.596731    -1.545787    -1.281459
H      -1.990684    -0.473122     1.286617
H      -1.990684    -0.473122    -1.286617
H       1.674453    -1.665993     0.881037
H       1.674453    -1.665993    -0.881037
H       1.487658     0.848119     0.873405
H       1.487658     0.848119    -0.873405
H      -0.554654     2.206788     0.882147
H      -0.554654     2.206788    -0.882147

@pcseg2.gbs

--Link1--
%chk=neohexane.chk
%mem=1000mw
%nprocs=4
# rohf/gen geom=check guess=check

neohexane, ROHF/cc-pVTZ-F12

0 1

@ccpvtz-f12.gbs
