%chk=nh2cn.chk
%mem=500mw
%nprocs=4
# b3lyp/gen opt freq CPHF(Grid=OneStep)

cyanamide, B3LYP/pcseg-2

0 1
C      -0.000000     0.221211     0.000000
N      -0.015899     1.375447     0.000000
N       0.079418    -1.115207    -0.000000
H      -0.222317    -1.574472     0.844994
H      -0.222317    -1.574472    -0.844994

@pcseg2.gbs

--Link1--
%chk=nh2cn.chk
%mem=500mw
%nprocs=4
# rohf/gen geom=check guess=check

cyanamide, ROHF/cc-pVTZ-F12

0 1

@ccpvtz-f12.gbs
