%chk=nh2no.chk
%mem=500mw
%nprocs=4
# b3lyp/gen opt freq CPHF(Grid=OneStep)

nitrosamine, B3LYP/pcseg-2

0 1
O      -1.136949     0.101604    -0.000000
N      -0.000000     0.520495    -0.000000
N       0.934292    -0.420584     0.000000
H       0.664858    -1.398904     0.000000
H       1.890692    -0.113307     0.000000

@pcseg2.gbs

--Link1--
%chk=nh2no.chk
%mem=500mw
%nprocs=4
# rohf/gen geom=check guess=check

nitrosamine, ROHF/cc-pVTZ-F12

0 1

@ccpvtz-f12.gbs
