%mem=1000mw
%nprocs=12
# b3lyp/gen opt freq

hydrazinyl, B3LYP/pcseg-2

0 2
N         -0.633471       0.015242       0.050336
N          0.715637      -0.079700      -0.016331
H         -1.099269       0.849936      -0.292550
H         -1.099936      -0.840167      -0.219751
H          1.057564       0.885825       0.039824

@pcseg2.gbs

