%chk=nh2oh.chk
%mem=500mw
%nprocs=4
# b3lyp/gen opt freq CPHF(Grid=OneStep)

hydroxylamine, B3LYP/pcseg-2

0 1
N       0.009821     0.706143    -0.000000
O       0.009821    -0.737489     0.000000
H       0.946858    -0.948886     0.000000
H      -0.547085     0.952899     0.812165
H      -0.547085     0.952899    -0.812165

@pcseg2.gbs

--Link1--
%chk=nh2oh.chk
%mem=500mw
%nprocs=4
# rohf/gen geom=check guess=check

hydroxylamine, ROHF/cc-pVTZ-F12

0 1

@ccpvtz-f12.gbs
