%mem=1000mw
%nprocs=8
# b3lyp/gen opt freq

N-methylpyrrolidone, B3LYP/pcseg-2

0 1
O  -4.7058    2.1957    0.4827
C  -4.1964    1.1699    0.0591
N  -2.8471    0.9194   -0.0208
C  -4.9215   -0.0784   -0.4501
C  -1.8568    1.8192    0.5253
C  -2.5204   -0.4267   -0.4661
C  -3.8251   -0.9046   -1.1416
H  -5.3466   -0.5980    0.4184
H  -5.7541    0.2014   -1.1003
H  -2.3698    2.7385    0.8150
H  -1.3667    1.3865    1.4091
H  -1.0849    2.0500   -0.2196
H  -1.6686   -0.4122   -1.1573
H  -2.2404   -1.0652    0.3878
H  -3.7921   -0.6650   -2.2097
H  -3.9645   -1.9848   -1.0468

@pcseg2.gbs

