%chk=no.chk
%mem=500mw
%nprocs=8
# b3lyp/gen opt freq CPHF(Grid=OneStep)

nitric oxide, B3LYP/pcseg-2

0 2
N       0.000000     0.000000    -0.610864
O       0.000000     0.000000     0.534506

@pcseg2.gbs

--Link1--
%chk=no.chk
%mem=500mw
%nprocs=8
# rohf/gen geom=check

nitric oxide, ROHF/cc-pVTZ-F12

0 2

@ccpvtz-f12.gbs
