%chk=no2.chk
%mem=500mw
%nprocs=4
# b3lyp/gen opt freq CPHF(Grid=OneStep)

NO2, B3LYP/pcseg-2

0 2
N       0.000000     0.000000     0.321151
O      -0.000000     1.098073    -0.140504
O      -0.000000    -1.098073    -0.140504

@pcseg2.gbs

--Link1--
%chk=no2.chk
%mem=500mw
%nprocs=4
# rohf/gen geom=check guess=check

NO2, ROHF/cc-pVTZ-F12

0 2

@ccpvtz-f12.gbs
