%chk=norbornadiene.chk
%mem=1000mw
%nprocs=4
# b3lyp/gen opt freq CPHF(Grid=OneStep)

Bicyclo[2.2.1]hepta-2,5-diene, B3LYP/pcseg-2

0 1
C       0.000000     0.000000     1.354453
C       0.000000     1.120566     0.272069
C      -0.000000    -1.120566     0.272069
C       1.240335     0.664701    -0.520086
C       1.240335    -0.664701    -0.520086
C      -1.240335     0.664701    -0.520086
C      -1.240335    -0.664701    -0.520086
H      -0.896743     0.000000     1.973129
H       0.896743    -0.000000     1.973129
H       0.000000     2.153356     0.608267
H      -0.000000    -2.153356     0.608267
H       1.927621     1.331159    -1.018068
H       1.927621    -1.331159    -1.018068
H      -1.927621     1.331159    -1.018068
H      -1.927621    -1.331159    -1.018068

@pcseg2.gbs

--Link1--
%chk=norbornadiene.chk
%mem=1000mw
%nprocs=4
# rohf/gen geom=check guess=check

Bicyclo[2.2.1]hepta-2,5-diene, ROHF/cc-pVTZ-F12

0 1

@ccpvtz-f12.gbs
