%chk=nPr.chk
%mem=500mw
%nprocs=4
# b3lyp/gen opt freq CPHF(Grid=OneStep)

n-propyl, B3LYP/pcseg-2

0 2
C      -1.301513    -0.293626     0.025793
C      -0.081511     0.550823    -0.044228
C       1.225660    -0.241282     0.033184
H       2.091819     0.415899    -0.050341
H       1.301110    -0.780170     0.978508
H       1.284834    -0.974796    -0.772877
H      -0.086363     1.132857    -0.979680
H      -0.108289     1.305554     0.749008
H      -2.264052     0.137166     0.262118
H      -1.274873    -1.332005    -0.275231

@pcseg2.gbs

--Link1--
%chk=nPr.chk
%mem=500mw
%nprocs=4
# rohf/gen geom=check guess=check

n-propyl, ROHF/cc-pVTZ-F12

0 2

@ccpvtz-f12.gbs
