%chk=o2.chk
%mem=500mw
%nprocs=4
# b3lyp/gen opt freq CPHF(Grid=OneStep)

O2, B3LYP/pcseg-2

0 3
O       0.000000     0.000000     0.602550
O       0.000000     0.000000    -0.602550

@pcseg2.gbs

--Link1--
%chk=o2.chk
%mem=500mw
%nprocs=4
# rohf/gen geom=check guess=check

O2, ROHF/cc-pVTZ-F12

0 3

@ccpvtz-f12.gbs
