%chk=oC6H4Cl.chk
%mem=500mw
%nprocs=4
# b3lyp/gen opt freq CPHF(Grid=OneStep)

2-chlorophenyl, B3LYP/pcseg-2

0 2
C       0.168121    -2.259333    -0.000000
H       0.228658    -3.339426    -0.000000
C       1.342340    -1.498504    -0.000000
C      -1.070356    -1.624685     0.000000
H       2.315790    -1.970323    -0.000000
H      -1.976202    -2.215099     0.000000
C       1.193563    -0.138018    -0.000000
C      -1.167112    -0.236851     0.000000
H      -2.129833     0.255653     0.000000
C      -0.000000     0.528135     0.000000
Cl     -0.072809     2.273219     0.000000

@pcseg2.gbs

--Link1--
%chk=oC6H4Cl.chk
%mem=500mw
%nprocs=4
# rohf/gen geom=check guess=check

2-chlorophenyl, ROHF/cc-pVTZ-F12

0 2

@ccpvtz-f12.gbs
