%mem=1000mw
%nprocs=12
# b3lyp/gen opt freq

2-chlorophenyl, B3LYP/pcseg-2

0 2
C         -2.352686       0.006904       0.000000
H         -3.437746      -0.000635       0.000000
C         -1.670098       1.232093       0.000000
C         -1.637327      -1.188975       0.000000
H         -2.208191       2.173871       0.000000
H         -2.167491      -2.135074       0.000000
C         -0.297907       1.178577       0.000000
C         -0.244279      -1.192147       0.000000
H          0.315086      -2.121097       0.000000
C          0.443447       0.026333       0.000000
Cl         2.192328       0.038486       0.000000

@pcseg2.gbs

