%chk=octane.chk
%mem=1000mw
%nprocs=4
# b3lyp/gen opt freq CPHF(Grid=OneStep)

n-octane, B3LYP/pcseg-2

0 1
C       0.000513     0.764617     0.000000
C      -0.000513    -0.764617     0.000000
C      -1.399202     1.379870     0.000000
C       1.399202    -1.379870     0.000000
C      -1.399202     2.909095     0.000000
C       1.399202    -2.909095     0.000000
C      -2.802179     3.513938     0.000000
C       2.802179    -3.513938     0.000000
H       0.552682     1.124823     0.874437
H       0.552682     1.124823    -0.874437
H      -0.552682    -1.124823     0.874437
H      -0.552682    -1.124823    -0.874437
H      -1.952181     1.020402    -0.874418
H      -1.952181     1.020402     0.874418
H       1.952181    -1.020402    -0.874418
H       1.952181    -1.020402     0.874418
H      -0.847354     3.268436     0.873843
H      -0.847354     3.268436    -0.873843
H       0.847354    -3.268436     0.873843
H       0.847354    -3.268436    -0.873843
H      -2.767833     4.604253     0.000000
H      -3.366728     3.200454    -0.880529
H      -3.366728     3.200454     0.880529
H       2.767833    -4.604253     0.000000
H       3.366728    -3.200454    -0.880529
H       3.366728    -3.200454     0.880529

@pcseg2.gbs

--Link1--
%chk=octane.chk
%mem=1000mw
%nprocs=4
# rohf/gen geom=check guess=check

n-octane, ROHF/cc-pVTZ-F12

0 1

@ccpvtz-f12.gbs
