%mem=1000mw
%nprocs=12
# b3lyp/gen opt freq

n-octane, B3LYP/pcseg-2

0 1
C	0.0023620	0.7663160	0.0000000
C	-0.0023620	-0.7663160	0.0000000
C	-1.4012090	1.3809320	0.0000000
C	1.4012090	-1.3809320	0.0000000
C	-1.4012090	2.9134080	0.0000000
C	1.4012090	-2.9134080	0.0000000
C	-2.8080250	3.5171580	0.0000000
C	2.8080250	-3.5171580	0.0000000
H	0.5574960	1.1278960	0.8770310
H	0.5574960	1.1278960	-0.8770310
H	-0.5574960	-1.1278960	0.8770310
H	-0.5574960	-1.1278960	-0.8770310
H	-1.9566820	1.0189960	-0.8768350
H	-1.9566820	1.0189960	0.8768350
H	1.9566820	-1.0189960	-0.8768350
H	1.9566820	-1.0189960	0.8768350
H	-0.8469510	3.2748130	0.8765660
H	-0.8469510	3.2748130	-0.8765660
H	0.8469510	-3.2748130	0.8765660
H	0.8469510	-3.2748130	-0.8765660
H	-2.7755450	4.6114540	0.0000000
H	-3.3745670	3.2012680	-0.8832930
H	-3.3745670	3.2012680	0.8832930
H	2.7755450	-4.6114540	0.0000000
H	3.3745670	-3.2012680	-0.8832930
H	3.3745670	-3.2012680	0.8832930

@pcseg2.gbs

