%mem=1000mw
%nprocs=12
# b3lyp/gen opt freq

nitrosyl nitrate, B3LYP/pcseg-2

0 1
N    -0.979419   -0.354799   -0.035000
O     0.000000    0.674481   -0.285000
N     1.517297    0.086364    0.325000
O     2.219451    0.970487   -0.050000
O    -2.094096    0.082777    0.205000
O    -0.595998   -1.492864   -0.125000

@pcseg2.gbs

