%mem=1000mw
%nprocs=12
# b3lyp/gen opt freq

oxiranyl, B3LYP/pcseg-2

0 2
C         -0.853319      -0.081047       0.015832
C          0.456182      -0.695998      -0.089888
O          0.412137       0.663696       0.012182
H          1.035916      -1.303235       0.603613
H         -1.459375       0.050289      -0.877494
H         -1.388818      -0.028243       0.962308

@pcseg2.gbs

