%chk=oxiranyl.chk
%mem=500mw
%nprocs=4
# b3lyp/gen opt freq CPHF(Grid=OneStep)

oxiranyl, B3LYP/pcseg-2

0 2
C      -0.793695    -0.191767     0.017569
C       0.590786    -0.567130    -0.157315
O       0.331750     0.757261     0.030866
H       1.293713    -1.110926     0.463689
H      -1.438597    -0.108216    -0.848302
H      -1.291659    -0.285568     0.976157

@pcseg2.gbs

--Link1--
%chk=oxiranyl.chk
%mem=500mw
%nprocs=4
# rohf/gen geom=check guess=check

oxiranyl, ROHF/cc-pVTZ-F12

0 2

@ccpvtz-f12.gbs
