%mem=1000mw
%nprocs=12
# b3lyp/gen opt freq

4-chlorophenyl, B3LYP/pcseg-2

0 2
C         -2.318007       0.000000       0.000000
C         -1.691007       1.222726       0.000000
C         -1.691007      -1.222726       0.000000
H         -2.237044       2.159706       0.000000
H         -2.237044      -2.159706       0.000000
C         -0.290407       1.218831       0.000000
C         -0.290407      -1.218831       0.000000
H          0.267675       2.147837       0.000000
H          0.267675      -2.147837       0.000000
C          0.383670       0.000000       0.000000
Cl         2.137204       0.000000       0.000000

@pcseg2.gbs

