%chk=pentane.chk
%mem=1000mw
%nprocs=4
# b3lyp/gen opt freq CPHF(Grid=OneStep)

n-pentane, B3LYP/pcseg-2

0 1
C       0.000000     0.000000     0.314104
C      -0.000000     1.280664    -0.521345
C      -0.000000    -1.280664    -0.521345
C      -0.000000     2.553962     0.323125
C      -0.000000    -2.553962     0.323125
H       0.874457    -0.000000     0.973821
H      -0.874457     0.000000     0.973821
H       0.873901     1.280001    -1.179795
H      -0.873901     1.280001    -1.179795
H      -0.873901    -1.280001    -1.179795
H       0.873901    -1.280001    -1.179795
H      -0.000000     3.448228    -0.301544
H      -0.000000    -3.448228    -0.301544
H      -0.880552     2.599842     0.967162
H       0.880552     2.599842     0.967162
H       0.880552    -2.599842     0.967162
H      -0.880552    -2.599842     0.967162

@pcseg2.gbs

--Link1--
%chk=pentane.chk
%mem=1000mw
%nprocs=4
# rohf/gen geom=check guess=check

n-pentane, ROHF/cc-pVTZ-F12

0 1

@ccpvtz-f12.gbs
