%chk=PhCCPh.chk
%mem=1000mw
%nprocs=4
# b3lyp/gen opt=cart freq CPHF(Grid=OneStep)

diphenylacetylene, B3LYP/pcseg-2

0 1
C      -0.000000     0.000000     0.603877
C       0.000000     0.000000    -0.603877
C       0.000000     0.000000    -2.025422
C      -0.000000    -0.000000     2.025422
C       0.000000     1.207829    -2.741030
C      -0.000000    -1.207829    -2.741030
C      -0.000000     1.207829     2.741030
C      -0.000000    -1.207829     2.741030
C       0.000000     1.203187    -4.127570
C      -0.000000    -1.203187    -4.127570
C      -0.000000     1.203187     4.127570
C      -0.000000    -1.203187     4.127570
C       0.000000     0.000000    -4.826416
C      -0.000000    -0.000000     4.826416
H       0.000000     2.141940    -2.197240
H      -0.000000    -2.141940    -2.197240
H      -0.000000     2.141940     2.197240
H      -0.000000    -2.141940     2.197240
H       0.000000     2.141772    -4.665338
H      -0.000000    -2.141772    -4.665338
H      -0.000000     2.141772     4.665338
H      -0.000000    -2.141772     4.665338
H       0.000000     0.000000    -5.907907
H      -0.000000    -0.000000     5.907907

@pcseg2.gbs

--Link1--
%chk=PhCCPh.chk
%mem=1000mw
%nprocs=4
# rohf/gen geom=check guess=check

diphenylacetylene, ROHF/cc-pVTZ-F12

0 1

@ccpvtz-f12.gbs
