%mem=1000mw
%nprocs=12
# b3lyp/gen opt freq

benzoyl chloride, B3LYP/pcseg-2

0 1
C          1.622587      -0.154702       0.000000
C          0.149645      -0.051117       0.000000
C         -0.593700      -1.237334       0.000000
C         -1.980946      -1.184189       0.000000
C         -2.630167       0.050771       0.000000
C         -1.892206       1.233131       0.000000
C         -0.502684       1.186155       0.000000
H         -0.065435      -2.183465       0.000000
H         -2.557967      -2.102404       0.000000
H         -3.714483       0.090932       0.000000
H         -2.399791       2.191505       0.000000
H          0.080602       2.097989       0.000000
O          2.282477      -1.144614       0.000000
Cl          2.5       1.3       0.000000

@pcseg2.gbs

