%mem=1000MW
%nprocs=12
# opt(cart) freq b3lyp/gen 

diphenylacetylene, B3LYP/pcseg-2

0 1
 C                 -0.60819822    0.00000000    0.00000000
 C                  0.60819822    0.00000000    0.00000000
 C                  2.03316197   -0.00000000    0.00000000
 C                 -2.03316197   -0.00000000    0.00000000
 C                  2.75073976    1.21331487    0.00000000
 C                  2.75073976   -1.21331487    0.00000000
 C                 -2.75073976    1.21331487    0.00000000
 C                 -2.75073976   -1.21331487    0.00000000
 C                  4.14280885    1.20844097    0.00000000
 C                  4.14280885   -1.20844097    0.00000000
 C                 -4.14280885    1.20844097    0.00000000
 C                 -4.14280885   -1.20844097    0.00000000
 C                  4.84394697   -0.00000000    0.00000000
 C                 -4.84394697   -0.00000000    0.00000000
 H                  2.20305316    2.15068481    0.00000000
 H                  2.20305316   -2.15068481    0.00000000
 H                 -2.20305316    2.15068481    0.00000000
 H                 -2.20305316   -2.15068481    0.00000000
 H                  4.68307913    2.15135535    0.00000000
 H                  4.68307913   -2.15135535    0.00000000
 H                 -4.68307913    2.15135535    0.00000000
 H                 -4.68307913   -2.15135535    0.00000000
 H                  5.93049454   -0.00000000    0.00000000
 H                 -5.93049454   -0.00000000    0.00000000

@pcseg2.gbs

