%chk=phcfo.chk
%mem=500mw
%nprocs=4
# b3lyp/gen opt freq CPHF(Grid=OneStep)

benzoyl fluoride, B3LYP/pcseg-2

0 1
C      -0.170182     1.701535    -0.000000
C       0.000000     0.235732     0.000000
C       1.302335    -0.272324     0.000000
C       1.509740    -1.642255     0.000000
C       0.421320    -2.510577     0.000000
C      -0.875545    -2.008133    -0.000000
C      -1.090591    -0.637074    -0.000000
H       2.134019     0.417300     0.000000
H       2.516950    -2.035038     0.000000
H       0.584957    -3.579738     0.000000
H      -1.718984    -2.684410    -0.000000
H      -2.094869    -0.241671    -0.000000
O       0.670304     2.537310     0.000000
F      -1.485218     2.069294    -0.000000

@pcseg2.gbs

--Link1--
%chk=phcfo.chk
%mem=500mw
%nprocs=4
# rohf/gen geom=check guess=check

benzoyl fluoride, ROHF/cc-pVTZ-F12

0 1

@ccpvtz-f12.gbs
