%mem=1000mw
%nprocs=12
# b3lyp/gen opt freq

1,4-dichlorobenzene, B3LYP/pcseg-2

0 1
C	0.0000000	0.0000000	1.3807430
C	0.0000000	0.0000000	-1.3807430
C	0.0000000	1.2108100	0.6960690
C	0.0000000	-1.2108100	0.6960690
C	0.0000000	-1.2108100	-0.6960690
C	0.0000000	1.2108100	-0.6960690
Cl	0.0000000	0.0000000	3.1380780
Cl	0.0000000	0.0000000	-3.1380780
H	0.0000000	2.1461900	1.2422860
H	0.0000000	-2.1461900	1.2422860
H	0.0000000	-2.1461900	-1.2422860
H	0.0000000	2.1461900	-1.2422860

@pcseg2.gbs

