%chk=phcl.chk
%mem=500mw
%nprocs=4
# b3lyp/gen opt freq CPHF(Grid=OneStep)

chlorobenzene, B3LYP/pcseg-2

0 1
Cl      0.000000     0.000000     2.254235
C       0.000000     0.000000     0.502974
C      -0.000000     1.209983    -0.177547
C      -0.000000    -1.209983    -0.177547
C      -0.000000     1.202094    -1.567571
C      -0.000000    -1.202094    -1.567571
C      -0.000000    -0.000000    -2.265310
H      -0.000000     2.138969     0.373109
H      -0.000000    -2.138969     0.373109
H      -0.000000     2.141644    -2.103190
H      -0.000000    -2.141644    -2.103190
H      -0.000000    -0.000000    -3.346394

@pcseg2.gbs

--Link1--
%chk=phcl.chk
%mem=500mw
%nprocs=4
# rohf/gen geom=check guess=check

chlorobenzene, ROHF/cc-pVTZ-F12

0 1

@ccpvtz-f12.gbs
