%chk=phcl2.chk
%mem=500mw
%nprocs=4
# b3lyp/gen opt freq CPHF(Grid=OneStep)

1,4-dichlorobenzene, B3LYP/pcseg-2

0 1
C      -0.000000     0.000000     1.378952
C       0.000000     0.000000    -1.378952
C      -0.000000     1.207686     0.694611
C      -0.000000    -1.207686     0.694611
C      -0.000000    -1.207686    -0.694611
C       0.000000     1.207686    -0.694611
Cl     -0.000000     0.000000     3.126949
Cl      0.000000     0.000000    -3.126949
H      -0.000000     2.140026     1.239339
H      -0.000000    -2.140026     1.239339
H      -0.000000    -2.140026    -1.239339
H       0.000000     2.140026    -1.239339

@pcseg2.gbs

--Link1--
%chk=phcl2.chk
%mem=500mw
%nprocs=4
# rohf/gen geom=check guess=check

1,4-dichlorobenzene, ROHF/cc-pVTZ-F12

0 1

@ccpvtz-f12.gbs
