%chk=phcn.chk
%mem=500mw
%nprocs=4
# b3lyp/gen opt freq CPHF(Grid=OneStep)

benzonitrile, B3LYP/pcseg-2

0 1
N       0.000000     0.000000     3.191280
C       0.000000     0.000000     2.039099
C       0.000000     0.000000     0.608495
C       0.000000     1.211915    -0.090750
C      -0.000000    -1.211915    -0.090750
C       0.000000     1.205578    -1.477568
C      -0.000000    -1.205578    -1.477568
C       0.000000    -0.000000    -2.171691
H       0.000000     2.143687     0.456347
H      -0.000000    -2.143687     0.456347
H       0.000000     2.142494    -2.017070
H      -0.000000    -2.142494    -2.017070
H       0.000000    -0.000000    -3.253110

@pcseg2.gbs

--Link1--
%chk=phcn.chk
%mem=500mw
%nprocs=4
# rohf/gen geom=check guess=check

benzonitrile, ROHF/cc-pVTZ-F12

0 1

@ccpvtz-f12.gbs
