%chk=phcoch3.chk
%mem=1000mw
%nprocs=4
# b3lyp/gen opt freq CPHF(Grid=OneStep)

acetophenone, B3LYP/pcseg-2

0 1
C       1.705600     2.167408     0.000000
C       0.269085     1.686537     0.000000
C       0.000000     0.211643     0.000000
O      -0.646765     2.483484     0.000000
C       1.023787    -0.739450     0.000000
C      -1.329403    -0.223218     0.000000
C       0.725120    -2.096524     0.000000
C      -1.627139    -1.576398     0.000000
C      -0.599593    -2.516558     0.000000
H       1.710747     3.253419     0.000000
H       2.238903     1.802309     0.879259
H       2.238903     1.802309    -0.879259
H       2.058463    -0.428073     0.000000
H      -2.112435     0.521467     0.000000
H       1.525066    -2.824394     0.000000
H      -2.658457    -1.902424     0.000000
H      -0.831816    -3.573127     0.000000

@pcseg2.gbs

--Link1--
%chk=phcoch3.chk
%mem=1000mw
%nprocs=4
# rohf/gen geom=check guess=check

acetophenone, ROHF/cc-pVTZ-F12

0 1

@ccpvtz-f12.gbs
