%chk=phcooh.chk
%mem=1000mw
%nprocs=4
# b3lyp/gen opt freq CPHF(Grid=OneStep)

benzoic acid, B3LYP/pcseg-2

0 1
C      -0.000000     0.220338     0.000000
C       1.277879    -0.342724    -0.000000
C       1.429948    -1.720912    -0.000000
C       0.307975    -2.544632    -0.000000
C      -0.966666    -1.987905    -0.000000
C      -1.124020    -0.608585     0.000000
C      -0.110796     1.701452     0.000000
O       0.823055     2.465798     0.000000
O      -1.393881     2.140575     0.000000
H       2.135555     0.314385    -0.000000
H       2.420713    -2.154221    -0.000000
H       0.427232    -3.619852    -0.000000
H      -1.837784    -2.628698    -0.000000
H      -2.111036    -0.171263     0.000000
H      -1.353989     3.106474     0.000000

@pcseg2.gbs

--Link1--
%chk=phcooh.chk
%mem=1000mw
%nprocs=4
# rohf/gen geom=check guess=check

benzoic acid, ROHF/cc-pVTZ-F12

0 1

@ccpvtz-f12.gbs
