%mem=1000mw
%nprocs=12
# b3lyp/gen opt freq

benzoic acid, B3LYP/pcseg-2

0 1
C	0.0000000	0.2214970	0.0000000
C	1.2783330	-0.3473160	0.0000000
C	1.4258340	-1.7292760	0.0000000
C	0.2978890	-2.5502160	0.0000000
C	-0.9775810	-1.9869200	0.0000000
C	-1.1299610	-0.6039160	0.0000000
C	-0.1032310	1.7046850	0.0000000
O	0.8343500	2.4667820	0.0000000
O	-1.3849440	2.1467290	0.0000000
H	2.1403440	0.3094590	0.0000000
H	2.4182860	-2.1678120	0.0000000
H	0.4129950	-3.6295560	0.0000000
H	-1.8541060	-2.6264830	0.0000000
H	-2.1173940	-0.1595010	0.0000000
H	-1.3430680	3.1145830	0.0000000

@pcseg2.gbs

