%chk=phenanthrene.chk
%mem=1000mw
%nprocs=4
# b3lyp/gen opt freq CPHF(Grid=OneStep)

a,c-dibenzobenzene, B3LYP/pcseg-2

0 1
C       0.000000     0.676523     2.086771
C      -0.000000    -0.676523     2.086771
C       0.000000     2.827691     0.875262
C       0.000000     1.417649     0.862398
C      -0.000000    -1.417649     0.862398
C      -0.000000    -2.827691     0.875262
C       0.000000     3.548272    -0.295157
C       0.000000     0.726888    -0.378955
C      -0.000000    -0.726888    -0.378955
C      -0.000000    -3.548272    -0.295157
C       0.000000     2.871930    -1.523664
C       0.000000     1.495560    -1.561176
C      -0.000000    -1.495560    -1.561176
C      -0.000000    -2.871930    -1.523664
H       0.000000     1.226677     3.018887
H      -0.000000    -1.226677     3.018887
H       0.000000     3.337096     1.830387
H      -0.000000    -3.337096     1.830387
H       0.000000     4.629407    -0.271947
H      -0.000000    -4.629407    -0.271947
H       0.000000     3.434175    -2.447586
H       0.000000     1.004636    -2.522614
H      -0.000000    -1.004636    -2.522614
H      -0.000000    -3.434175    -2.447586

@pcseg2.gbs

--Link1--
%chk=phenanthrene.chk
%mem=1000mw
%nprocs=4
# rohf/gen geom=check guess=check

a,c-dibenzobenzene, ROHF/cc-pVTZ-F12

0 1

@ccpvtz-f12.gbs
