%chk=PhEt.chk
%mem=1000mw
%nprocs=4
# b3lyp/gen opt freq CPHF(Grid=OneStep)

ethylbenzene, B3LYP/pcseg-2

0 1
C      -0.231834     0.489120     0.000000
C      -0.234039    -0.228181     1.197577
C      -0.234039    -1.618318     1.200736
C      -0.232788    -2.319124    -0.000000
C      -0.234039    -1.618318    -1.200736
C      -0.234039    -0.228181    -1.197577
C      -0.192422     1.998686     0.000000
C       1.235439     2.562449     0.000000
H      -0.241170     0.308625     2.138558
H      -0.239653    -2.154078     2.140857
H      -0.236186    -3.400787    -0.000000
H      -0.239653    -2.154078    -2.140857
H      -0.241170     0.308625    -2.138558
H      -0.726725     2.374599    -0.875188
H      -0.726725     2.374599     0.875188
H       1.787011     2.230144     0.880270
H       1.787011     2.230144    -0.880270
H       1.223836     3.653415     0.000000

@pcseg2.gbs

--Link1--
%chk=PhEt.chk
%mem=1000mw
%nprocs=4
# rohf/gen geom=check guess=check

ethylbenzene, ROHF/cc-pVTZ-F12

0 1

@ccpvtz-f12.gbs
