%mem=1000mw
%nprocs=12
# b3lyp/gen opt freq

fluorobenzene, B3LYP/pcseg-2

0 1
F	0.0000000	0.0000000	2.2720230
C	0.0000000	0.0000000	0.9336060
C	0.0000000	1.2140100	0.2606110
C	0.0000000	-1.2140100	0.2606110
C	0.0000000	1.2054810	-1.1322660
C	0.0000000	-1.2054810	-1.1322660
C	0.0000000	0.0000000	-1.8313860
H	0.0000000	2.1373490	0.8277220
H	0.0000000	-2.1373490	0.8277220
H	0.0000000	2.1472020	-1.6707520
H	0.0000000	-2.1472020	-1.6707520
H	0.0000000	0.0000000	-2.9156100

@pcseg2.gbs

