%chk=phnc.chk
%mem=500mw
%nprocs=4
# b3lyp/gen opt freq CPHF(Grid=OneStep)

phenyl isocyanide, B3LYP/pcseg-2

0 1
C       0.000000    -0.000000     0.633677
C       0.000000     1.212019    -0.056655
C      -0.000000    -1.212019    -0.056655
C       0.000000     1.204138    -1.444027
C      -0.000000    -1.204138    -1.444027
C      -0.000000     0.000000    -2.140264
H       0.000000     2.138942     0.498088
H      -0.000000    -2.138942     0.498088
H       0.000000     2.142155    -1.981689
H      -0.000000    -2.142155    -1.981689
H      -0.000000     0.000000    -3.221412
N       0.000000    -0.000000     2.017264
C       0.000000    -0.000000     3.185914

@pcseg2.gbs

--Link1--
%chk=phnc.chk
%mem=500mw
%nprocs=4
# rohf/gen geom=check guess=check

phenyl isocyanide, ROHF/cc-pVTZ-F12

0 1

@ccpvtz-f12.gbs
