%mem=1000mw
%nprocs=12
# b3lyp/gen opt freq

nitrobenzene, B3LYP/pcseg-2

0 1
C	0.0000000	0.0000000	0.2419530
C	0.0000000	1.2178430	-0.4296360
C	0.0000000	1.2098230	-1.8207080
C	0.0000000	0.0000000	-2.5148590
C	0.0000000	-1.2098230	-1.8207080
C	0.0000000	-1.2178430	-0.4296360
N	0.0000000	0.0000000	1.7228670
O	0.0000000	-1.0843710	2.2894960
O	0.0000000	1.0843710	2.2894960
H	0.0000000	2.1391580	0.1368770
H	0.0000000	2.1493260	-2.3622240
H	0.0000000	0.0000000	-3.5997460
H	0.0000000	-2.1493260	-2.3622240
H	0.0000000	-2.1391580	0.1368770

@pcseg2.gbs

