%chk=phno.chk
%mem=500mw
%nprocs=4
# b3lyp/gen opt freq CPHF(Grid=OneStep)

nitrosobenzene, B3LYP/pcseg-2

0 1
C       0.000000     0.594346     0.000000
C      -1.053388    -0.322884     0.000000
C      -0.764931    -1.675605     0.000000
C       0.563255    -2.109205     0.000000
C       1.607854    -1.191362     0.000000
C       1.325686     0.168222     0.000000
N      -0.183833     2.021727     0.000000
O      -1.333627     2.401834     0.000000
H      -2.069882     0.043862     0.000000
H      -1.566974    -2.401209     0.000000
H       0.779546    -3.169169     0.000000
H       2.632911    -1.534927     0.000000
H       2.109395     0.913604     0.000000

@pcseg2.gbs

--Link1--
%chk=phno.chk
%mem=500mw
%nprocs=4
# rohf/gen geom=check guess=check

nitrosobenzene, ROHF/cc-pVTZ-F12

0 1

@ccpvtz-f12.gbs
