%mem=1000mw
%nprocs=12
# b3lyp/gen opt freq

phenoxyl, B3LYP/pcseg-2

0 2
C	0.0000000	0.0000000	1.0489830
C	0.0000000	1.2371790	0.2889640
C	0.0000000	-1.2371790	0.2889640
C	0.0000000	1.2230300	-1.0855740
C	0.0000000	-1.2230300	-1.0855740
C	0.0000000	0.0000000	-1.7818530
O	0.0000000	0.0000000	2.2994070
H	0.0000000	2.1608610	0.8572090
H	0.0000000	-2.1608610	0.8572090
H	0.0000000	2.1540500	-1.6432320
H	0.0000000	-2.1540500	-1.6432320
H	0.0000000	0.0000000	-2.8666730

@pcseg2.gbs

