%chk=phoh.chk
%mem=500mw
%nprocs=4
# b3lyp/gen opt freq CPHF(Grid=OneStep)

phenol, B3LYP/pcseg-2

0 1
C       0.000000     0.936554     0.000000
C      -1.200370     0.230288     0.000000
C      -1.183790    -1.159983     0.000000
C       0.021579    -1.850839     0.000000
C       1.216103    -1.135819     0.000000
C       1.212753     0.251658     0.000000
O       0.047913     2.302714     0.000000
H      -0.844264     2.660040     0.000000
H      -2.142938     0.765396     0.000000
H      -2.120416    -1.701187     0.000000
H       0.031512    -2.931621     0.000000
H       2.161059    -1.662424     0.000000
H       2.134100     0.816933     0.000000

@pcseg2.gbs

--Link1--
%chk=phoh.chk
%mem=500mw
%nprocs=4
# rohf/gen geom=check guess=check

phenol, ROHF/cc-pVTZ-F12

0 1

@ccpvtz-f12.gbs
