%chk=PhOO.chk
%mem=500mw
%nprocs=4
# b3lyp/gen opt freq CPHF(Grid=OneStep)

phenylperoxyl, B3LYP/pcseg-2

0 2
C       0.000000     0.557138     0.000000
C      -1.029345    -0.372195     0.000000
C      -0.693281    -1.719388     0.000000
C       0.640408    -2.120117     0.000000
C       1.653447    -1.166109     0.000000
C       1.338263     0.185508     0.000000
O      -0.218199     1.937413     0.000000
O      -1.482423     2.313475     0.000000
H      -2.054429    -0.037771     0.000000
H      -1.479831    -2.461460     0.000000
H       0.888375    -3.172389     0.000000
H       2.690103    -1.472991     0.000000
H       2.103805     0.948492     0.000000

@pcseg2.gbs

--Link1--
%chk=PhOO.chk
%mem=500mw
%nprocs=4
# rohf/gen geom=check guess=check

phenylperoxyl, ROHF/cc-pVTZ-F12

0 2

@ccpvtz-f12.gbs
