%mem=1000mw
%nprocs=12
# b3lyp/gen opt freq

phenyl hydroperoxide, B3LYP/pcseg-2

0 1
C          0.432864      -0.254547      -0.001023
C          0.021465       1.073843      -0.000626
C         -1.345163       1.352672       0.002075
C         -2.286433       0.328751       0.004472
C         -1.852571      -0.997130       0.001084
C         -0.496594      -1.297318      -0.003464
O          1.746488      -0.669978       0.004125
O          2.649713       0.444950      -0.058327
H          0.757170       1.864685      -0.011071
H         -1.669038       2.388431       0.000668
H         -3.346046       0.557813       0.006302
H         -2.574117      -1.807489       0.000380
H         -0.142474      -2.321757      -0.008595
H          3.005888       0.433630       0.842565

@pcseg2.gbs

