%mem=1000mw
%nprocs=12
# b3lyp/gen opt freq

biphenyl, B3LYP/pcseg-2

0 1
C	0.0000000	0.0000000	0.7420600
C	0.0000000	0.0000000	-0.7420600
C	-0.4189950	1.1257940	1.4620580
C	0.4189950	-1.1257940	1.4620580
C	-0.4189950	-1.1257940	-1.4620580
C	0.4189950	1.1257940	-1.4620580
C	-0.4194070	1.1259700	2.8518720
C	0.4194070	-1.1259700	2.8518720
C	-0.4194070	-1.1259700	-2.8518720
C	0.4194070	1.1259700	-2.8518720
C	0.0000000	0.0000000	3.5534070
C	0.0000000	0.0000000	-3.5534070
H	-0.7701440	1.9998420	0.9274240
H	0.7701440	-1.9998420	0.9274240
H	-0.7701440	-1.9998420	-0.9274240
H	0.7701440	1.9998420	-0.9274240
H	-0.7563520	2.0050700	3.3880600
H	0.7563520	-2.0050700	3.3880600
H	-0.7563520	-2.0050700	-3.3880600
H	0.7563520	2.0050700	-3.3880600
H	0.0000000	0.0000000	4.6365010
H	0.0000000	0.0000000	-4.6365010

@pcseg2.gbs

