%chk=prismane.chk
%mem=500mw
%nprocs=4
# b3lyp/gen opt freq CPHF(Grid=OneStep)

tetracyclic C6H6, B3LYP/pcseg-2

0 1
C       0.000000     0.876970     0.778263
C      -0.759478    -0.438485     0.778263
C       0.759478    -0.438485     0.778263
C       0.000000     0.876970    -0.778263
C       0.759478    -0.438485    -0.778263
C      -0.759478    -0.438485    -0.778263
H       0.000000     1.669762     1.510079
H      -1.446056    -0.834881     1.510079
H       1.446056    -0.834881     1.510079
H       0.000000     1.669762    -1.510079
H       1.446056    -0.834881    -1.510079
H      -1.446056    -0.834881    -1.510079

@pcseg2.gbs

--Link1--
%chk=prismane.chk
%mem=500mw
%nprocs=4
# rohf/gen geom=check guess=check

tetracyclic C6H6, ROHF/cc-pVTZ-F12

0 1

@ccpvtz-f12.gbs
