%chk=PrNH2.chk
%mem=500mw
%nprocs=4
# b3lyp/gen opt freq CPHF(Grid=OneStep)

n-propylamine, B3LYP/pcseg-2

0 1
C       1.426339     1.299414     0.000000
C       0.000000     0.751065     0.000000
C      -0.052546    -0.780049     0.000000
N      -1.385120    -1.382875     0.000000
H       1.435511     2.389772     0.000000
H       1.978086     0.964273     0.880544
H       1.978086     0.964273    -0.880544
H      -0.540185     1.124543     0.875509
H      -0.540185     1.124543    -0.875509
H       0.484443    -1.160359    -0.873043
H       0.484443    -1.160359     0.873043
H      -1.913563    -1.094570    -0.814063
H      -1.913563    -1.094570     0.814063

@pcseg2.gbs

--Link1--
%chk=PrNH2.chk
%mem=500mw
%nprocs=4
# rohf/gen geom=check guess=check

n-propylamine, ROHF/cc-pVTZ-F12

0 1

@ccpvtz-f12.gbs
