%mem=1000mw
%nprocs=12
# b3lyp/gen opt freq

n-propylamine, B3LYP/pcseg-2

0 1
C	1.4299790	1.2984420	0.0000000
C	0.0000000	0.7502130	0.0000000
C	-0.0541900	-0.7847060	0.0000000
N	-1.3899200	-1.3859180	0.0000000
H	1.4413620	2.3926620	0.0000000
H	1.9834210	0.9603660	0.8832950
H	1.9834210	0.9603660	-0.8832950
H	-0.5430030	1.1257020	0.8783010
H	-0.5430030	1.1257020	-0.8783010
H	0.4863400	-1.1657960	-0.8764690
H	0.4863400	-1.1657960	0.8764690
H	-1.9100880	-1.0577370	-0.8097460
H	-1.9100880	-1.0577370	0.8097460

@pcseg2.gbs

