%chk=proh.chk
%mem=500mw
%nprocs=4
# b3lyp/gen opt freq CPHF(Grid=OneStep)

1-propanol, B3LYP/pcseg-2

0 1
C      -1.551306    -0.512956     0.127854
C      -0.634275     0.634423    -0.291935
C       0.763530     0.542740     0.295276
O       1.398874    -0.630569    -0.215973
H      -2.539964    -0.408124    -0.320349
H      -1.679278    -0.536383     1.212369
H      -1.139851    -1.472930    -0.180461
H      -0.548473     0.665815    -1.380926
H      -1.065198     1.590856     0.016459
H       0.705680     0.498678     1.389969
H       1.338922     1.435093     0.024597
H       2.269473    -0.713697     0.178956

@pcseg2.gbs

--Link1--
%chk=proh.chk
%mem=500mw
%nprocs=4
# rohf/gen geom=check guess=check

1-propanol, ROHF/cc-pVTZ-F12

0 1

@ccpvtz-f12.gbs
