%mem=1000mw
%nprocs=12
# b3lyp/gen opt freq

propyl nitrite, B3LYP/pcseg-2

0 1
C         -0.278155       0.708010       0.010374
O          0.383192      -0.507172      -0.403406
N          1.747307      -0.584689      -0.143936
C         -1.752467       0.563042      -0.337517
H          0.186253       1.556010      -0.504595
H         -0.121612       0.848107       1.086399
C         -2.456287      -0.556328       0.434792
H         -2.232678       1.526555      -0.127958
H         -1.845453       0.395800      -1.416631
H         -3.511670      -0.619624       0.155032
H         -1.991808      -1.524497       0.230155
H         -2.406534      -0.381467       1.515232
O          2.204633       0.369365       0.389576

@pcseg2.gbs

