%chk=propene.chk
%mem=500mw
%nprocs=4
# b3lyp/gen opt freq CPHF(Grid=OneStep)

propene, B3LYP/pcseg-2

0 1
C      -1.134199    -0.504630     0.000000
C       0.000000     0.471977     0.000000
C       1.287772     0.151634     0.000000
H       1.615663    -0.881198     0.000000
H       2.060770     0.908157     0.000000
H      -0.276807     1.522343     0.000000
H      -0.776099    -1.534045     0.000000
H      -1.772482    -0.364573     0.876136
H      -1.772482    -0.364573    -0.876136

@pcseg2.gbs

--Link1--
%chk=propene.chk
%mem=500mw
%nprocs=4
# rohf/gen geom=check guess=check

propene, ROHF/cc-pVTZ-F12

0 1

@ccpvtz-f12.gbs
