%chk=propyne.chk
%mem=500mw
%nprocs=4
# b3lyp/gen opt freq CPHF(Grid=OneStep)

propyne, B3LYP/pcseg-2

0 1
C       0.000000     0.000000    -1.236659
C       0.000000     0.000000     0.218628
C       0.000000     0.000000     1.417881
H       0.000000     0.000000     2.479343
H       0.000000     1.019098    -1.626146
H       0.882565    -0.509549    -1.626146
H      -0.882565    -0.509549    -1.626146

@pcseg2.gbs

--Link1--
%chk=propyne.chk
%mem=500mw
%nprocs=4
# rohf/gen geom=check guess=check

propyne, ROHF/cc-pVTZ-F12

0 1

@ccpvtz-f12.gbs
