%mem=500mw
%nprocs=4
# b3lyp/gen opt freq 

propyne, B3LYP/pcseg-2

0 1
C	0.0000000	0.0000000	-1.2366590
C	0.0000000	0.0000000	0.2186280
C	0.0000000	0.0000000	1.4178810
H	0.0000000	0.0000000	2.4793430
H	0.0000000	1.0190980	-1.6261460
H	0.8825650	-0.5095490	-1.6261460
H	-0.8825650	-0.5095490	-1.6261460

@pcseg2.gbs

