%mem=1000mw
%nprocs=12
# b3lyp/gen opt freq

pyridine-N-oxide, B3LYP/pcseg-2

0 1
 C     0.00000000   1.18049700  -0.23854291
 N     0.00000000   0.00000000  -0.94231641
 C     0.00000000   1.19466800   1.14449709
 C     0.00000000   0.00000000   1.86723759
 C     0.00000000  -1.19466800   1.14449709
 C     0.00000000  -1.18049700  -0.23854291
 O     0.00000000   0.00000000  -2.21666141
 H     0.00000000   2.05915700  -0.86942591
 H     0.00000000   2.15637700   1.64825359
 H     0.00000000   0.00000000   2.95160559
 H     0.00000000  -2.15637700   1.64825359
 H     0.00000000  -2.05915700  -0.86942591

@pcseg2.gbs

