%mem=500mw
%nprocs=4
# b3lyp/gen opt freq

pyrrole, B3LYP/pcseg-2

0 1
N	0.0000000	0.0000000	1.1224650
H	0.0000000	0.0000000	2.1304600
C	0.0000000	1.1252960	0.3314020
C	0.0000000	-1.1252960	0.3314020
C	0.0000000	0.7125900	-0.9834250
C	0.0000000	-0.7125900	-0.9834250
H	0.0000000	2.1136230	0.7679480
H	0.0000000	-2.1136230	0.7679480
H	0.0000000	1.3604490	-1.8496660
H	0.0000000	-1.3604490	-1.8496660

@pcseg2.gbs

