%chk=s2.chk
%mem=500mw
%nprocs=4
# b3lyp/gen opt freq CPHF(Grid=OneStep)

S2, B3LYP/pcseg-2

0 3
S       0.000000     0.000000     0.953767
S       0.000000     0.000000    -0.953767

@pcseg2.gbs

--Link1--
%chk=s2.chk
%mem=500mw
%nprocs=4
# rohf/gen geom=check guess=check

S2, ROHF/cc-pVTZ-F12

0 3

@ccpvtz-f12.gbs
