%chk=s2o.chk
%mem=500mw
%nprocs=4
# b3lyp/gen opt freq CPHF(Grid=OneStep)

disulfur monoxide, B3LYP/pcseg-2

0 1
O       1.458700     0.802981     0.000000
S       0.000000     0.676918     0.000000
S      -0.729350    -1.078408     0.000000

@pcseg2.gbs

--Link1--
%chk=s2o.chk
%mem=500mw
%nprocs=4
# rohf/gen geom=check guess=check

disulfur monoxide, ROHF/cc-pVTZ-F12

0 1

@ccpvtz-f12.gbs
