%chk=s8.chk
%mem=500mw
%nprocs=4
# b3lyp/gen opt freq CPHF(Grid=OneStep)

octasulfur, D4d, B3LYP/pcseg-2

0 1
S       0.000000     2.392275     0.493207
S       2.392275    -0.000000     0.493207
S      -0.000000    -2.392275     0.493207
S      -2.392275     0.000000     0.493207
S      -1.691594     1.691594    -0.493207
S      -1.691594    -1.691594    -0.493207
S       1.691594    -1.691594    -0.493207
S       1.691594     1.691594    -0.493207

@pcseg2.gbs

--Link1--
%chk=s8.chk
%mem=500mw
%nprocs=4
# rohf/gen geom=check guess=check

octasulfur, D4d, ROHF/cc-pVTZ-F12

0 1

@ccpvtz-f12.gbs
