%mem=2000mw
%nprocs=12
# b3lyp/gen opt freq CPHF(Grid=OneStep)

octasulfur, D4d, B3LYP/pcseg-2

0 1
S	0.0000000	2.4298680	0.4978350
S	2.4298680	0.0000000	0.4978350
S	0.0000000	-2.4298680	0.4978350
S	-2.4298680	0.0000000	0.4978350
S	-1.7181760	1.7181760	-0.4978350
S	-1.7181760	-1.7181760	-0.4978350
S	1.7181760	-1.7181760	-0.4978350
S	1.7181760	1.7181760	-0.4978350

@pcseg2.gbs

