%chk=sBu.chk
%mem=500mw
%nprocs=4
# b3lyp/gen opt freq CPHF(Grid=OneStep)

2-butyl, B3LYP/pcseg-2

0 2
C      -1.935290     0.166523    -0.064096
C      -0.567381    -0.503380     0.072249
H      -2.741993    -0.565424    -0.014228
H      -2.019036     0.695034    -1.014734
H      -2.095583     0.892951     0.734548
C       0.580069     0.444113     0.035335
H      -0.544153    -1.080445     1.011614
H      -0.443262    -1.258036    -0.714761
C       1.981684    -0.042713    -0.053089
H       0.398757     1.486190     0.269215
H       2.684257     0.766555    -0.251715
H       2.098313    -0.794306    -0.840742
H       2.308205    -0.529772     0.878408

@pcseg2.gbs

--Link1--
%chk=sBu.chk
%mem=500mw
%nprocs=4
# rohf/gen geom=check guess=check

2-butyl, ROHF/cc-pVTZ-F12

0 2

@ccpvtz-f12.gbs
