%mem=1000mw
%nprocs=12
# b3lyp/gen opt freq

2-butyl, B3LYP/pcseg-2

0 2
C         -1.939935      -0.179109       0.083640
C         -0.581779       0.512143      -0.086986
H         -2.762112       0.542109       0.048110
H         -1.993647      -0.707653       1.040779
H         -2.107039      -0.914796      -0.710687
C          0.577153      -0.428486      -0.068017
H         -0.591423       1.086046      -1.033269
H         -0.449746       1.274543       0.695586
C          1.978353       0.059124       0.074868
H          0.413243      -1.448970      -0.406076
H          2.669583      -0.749743       0.332098
H          2.059643       0.834693       0.847698
H          2.359154       0.516329      -0.855965

@pcseg2.gbs

