%chk=sf6.chk
%mem=500mw
%nprocs=4
# b3lyp/gen opt freq CPHF(Grid=OneStep)

sulfur hexafluoride, B3LYP/pcseg-2

0 1
S       0.000000     0.000000     0.000000
F      -0.000000     0.000000     1.581346
F       0.000000     1.581346    -0.000000
F       1.581346     0.000000     0.000000
F      -0.000000    -1.581346     0.000000
F      -1.581346     0.000000    -0.000000
F      -0.000000    -0.000000    -1.581346

@pcseg2.gbs

--Link1--
%chk=sf6.chk
%mem=500mw
%nprocs=4
# rohf/gen geom=check guess=check

sulfur hexafluoride, ROHF/cc-pVTZ-F12

0 1

@ccpvtz-f12.gbs
