%mem=500mw
%nprocs=8
# b3lyp/gen opt freq

sulfur hexafluoride, B3LYP/pcseg-2

0 1
S	0.0000000	0.0000000	0.0000000
F	0.0000000	0.0000000	1.5772270
F	0.0000000	1.5772270	0.0000000
F	1.5772270	0.0000000	0.0000000
F	0.0000000	-1.5772270	0.0000000
F	-1.5772270	0.0000000	0.0000000
F	0.0000000	0.0000000	-1.5772270

@pcseg2.gbs

