%chk=si2h4.chk
%mem=500mw
%nprocs=4
# b3lyp/gen opt freq CPHF(Grid=OneStep)

disilene, B3LYP/pcseg-2

0 1
Si      0.000000     1.081068     0.000000
Si     -0.000000    -1.081068     0.000000
H       0.396412     1.801176     1.228370
H       0.396412     1.801176    -1.228370
H      -0.396412    -1.801176     1.228370
H      -0.396412    -1.801176    -1.228370

@pcseg2.gbs

--Link1--
%chk=si2h4.chk
%mem=500mw
%nprocs=4
# rohf/gen geom=check guess=check

disilene, ROHF/cc-pVTZ-F12

0 1

@ccpvtz-f12.gbs
