%chk=si2h6.chk
%mem=500mw
%nprocs=4
# b3lyp/gen opt freq CPHF(Grid=OneStep)

disilane, B3LYP/pcseg-2

0 1
Si      0.000000     0.000000     1.175689
Si     -0.000000    -0.000000    -1.175689
H       0.000000     1.389622     1.691690
H      -1.203448    -0.694811     1.691690
H       1.203448    -0.694811     1.691690
H      -0.000000    -1.389622    -1.691690
H      -1.203448     0.694811    -1.691690
H       1.203448     0.694811    -1.691690

@pcseg2.gbs

--Link1--
%chk=si2h6.chk
%mem=500mw
%nprocs=4
# rohf/gen geom=check guess=check

disilane, ROHF/cc-pVTZ-F12

0 1

@ccpvtz-f12.gbs
