%mem=1000mw
%nprocs=12
# b3lyp/gen opt freq

disilane, B3LYP/pcseg-2

0 1
Si	0.0000000	0.0000000	1.1790430
Si	0.0000000	0.0000000	-1.1790430
H	0.0000000	1.3964610	1.6976230
H	-1.2093710	-0.6982300	1.6976230
H	1.2093710	-0.6982300	1.6976230
H	0.0000000	-1.3964610	-1.6976230
H	-1.2093710	0.6982300	-1.6976230
H	1.2093710	0.6982300	-1.6976230

@pcseg2.gbs

