%chk=sif4.chk
%mem=500mw
%nprocs=4
# b3lyp/gen opt freq CPHF(Grid=OneStep)

tetrafluorosilane, B3LYP/pcseg-2

0 1
Si      0.000000     0.000000     0.000000
F       0.903868     0.903868     0.903868
F      -0.903868    -0.903868     0.903868
F      -0.903868     0.903868    -0.903868
F       0.903868    -0.903868    -0.903868

@pcseg2.gbs

--Link1--
%chk=sif4.chk
%mem=500mw
%nprocs=4
# rohf/gen geom=check guess=check

tetrafluorosilane, ROHF/cc-pVTZ-F12

0 1

@ccpvtz-f12.gbs
