%chk=sih2.chk
%mem=500mw
%nprocs=4
# b3lyp/gen opt freq CPHF(Grid=OneStep)

silylene, B3LYP/pcseg-2

0 3
Si      0.000000     0.000000     0.094791
H      -0.000000     1.276222    -0.663537
H      -0.000000    -1.276222    -0.663537

@pcseg2.gbs

--Link1--
%chk=sih2.chk
%mem=500mw
%nprocs=4
# rohf/gen geom=check guess=check

silylene, ROHF/cc-pVTZ-F12

0 3

@ccpvtz-f12.gbs
