%chk=sih2me2.chk
%mem=500mw
%nprocs=4
# b3lyp/gen opt freq CPHF(Grid=OneStep)

dimethylsilane, B3LYP/pcseg-2

0 1
Si     -0.000000     0.000000     0.544478
C      -0.000000     1.556292    -0.508653
C      -0.000000    -1.556292    -0.508653
H       1.197027    -0.000000     1.425130
H      -1.197027     0.000000     1.425130
H      -0.000000     2.450994     0.115597
H       0.882085     1.597430    -1.150076
H      -0.882085     1.597430    -1.150076
H      -0.000000    -2.450994     0.115597
H      -0.882085    -1.597430    -1.150076
H       0.882085    -1.597430    -1.150076

@pcseg2.gbs

--Link1--
%chk=sih2me2.chk
%mem=500mw
%nprocs=4
# rohf/gen geom=check guess=check

dimethylsilane, ROHF/cc-pVTZ-F12

0 1

@ccpvtz-f12.gbs
