%chk=sih3oh.chk
%mem=500mw
%nprocs=4
# b3lyp/gen opt freq CPHF(Grid=OneStep)

silanol, B3LYP/pcseg-2

0 1
Si      0.029936    -0.531927     0.000000
O       0.029936     1.119393     0.000000
H       1.447167    -0.939374     0.000000
H      -0.650974    -1.079373     1.198527
H      -0.650974    -1.079373    -1.198527
H      -0.803806     1.589956    -0.000000

@pcseg2.gbs

--Link1--
%chk=sih3oh.chk
%mem=500mw
%nprocs=4
# rohf/gen geom=check guess=check

silanol, ROHF/cc-pVTZ-F12

0 1

@ccpvtz-f12.gbs
