%chk=sihme3.chk
%mem=500mw
%nprocs=4
# b3lyp/gen opt freq CPHF(Grid=OneStep)

trimethylsilane, B3LYP/pcseg-2

0 1
Si      0.000000     0.000000     0.373463
H       0.000000     0.000000     1.862577
C       0.000000     1.784994    -0.221032
C       1.545850    -0.892497    -0.221032
C      -1.545850    -0.892497    -0.221032
H       0.000000     1.838953    -1.311872
H       0.880933     2.320727     0.137189
H      -0.880933     2.320727     0.137189
H       1.592580    -0.919477    -1.311872
H       1.569341    -1.923274     0.137189
H       2.450275    -0.397453     0.137189
H      -1.592580    -0.919477    -1.311872
H      -2.450275    -0.397453     0.137189
H      -1.569341    -1.923274     0.137189

@pcseg2.gbs

--Link1--
%chk=sihme3.chk
%mem=500mw
%nprocs=4
# rohf/gen geom=check guess=check

trimethylsilane, ROHF/cc-pVTZ-F12

0 1

@ccpvtz-f12.gbs
