%mem=1000mw
%nprocs=12
# b3lyp/gen opt freq

styrene, B3LYP/pcseg-2

0 1
C	0.0000000	0.5579710	0.0000000
C	-1.0034870	-0.4204660	0.0000000
C	-0.6833250	-1.7687470	0.0000000
C	0.6486120	-2.1770420	0.0000000
C	1.6561960	-1.2212370	0.0000000
C	1.3323450	0.1297980	0.0000000
C	-0.2822090	1.9992250	0.0000000
C	-1.4741070	2.5954140	0.0000000
H	-2.0440550	-0.1254890	0.0000000
H	-1.4745450	-2.5070920	0.0000000
H	0.8951680	-3.2304390	0.0000000
H	2.6946000	-1.5256340	0.0000000
H	2.1229050	0.8702640	0.0000000
H	0.6017100	2.6297500	0.0000000
H	-1.5540160	3.6733630	0.0000000
H	-2.4059160	2.0457800	0.0000000

@pcseg2.gbs

