%chk=styrene.chk
%mem=1000mw
%nprocs=4
# b3lyp/gen opt freq CPHF(Grid=OneStep)

styrene, B3LYP/pcseg-2

0 1
C       0.000000     0.557804     0.000000
C      -1.003964    -0.420339     0.000000
C      -0.683900    -1.768622     0.000000
C       0.647817    -2.177623     0.000000
C       1.655594    -1.222015     0.000000
C       1.332422     0.129147     0.000000
C      -0.281565     1.999522     0.000000
C      -1.472719     2.596893     0.000000
H      -2.044162    -0.125249     0.000000
H      -1.475046    -2.506648     0.000000
H       0.893814    -3.230861     0.000000
H       2.693580    -1.526802     0.000000
H       2.123036     0.869090     0.000000
H       0.602520     2.629227     0.000000
H      -1.551108     3.674731     0.000000
H      -2.404747     2.047908     0.000000

@pcseg2.gbs

--Link1--
%chk=styrene.chk
%mem=1000mw
%nprocs=4
# rohf/gen geom=check guess=check

styrene, ROHF/cc-pVTZ-F12

0 1

@ccpvtz-f12.gbs
