%chk=succinicA.chk
%mem=500mw
%nprocs=4
# b3lyp/gen opt freq CPHF(Grid=OneStep)

butanedioic acid, B3LYP/pcseg-2

0 1
C      -0.276996     0.708039     1.043954
C       0.276996    -0.708039     1.043954
C       0.276996     1.551512    -0.079896
C      -0.276996    -1.551512    -0.079896
O       1.202558     1.256706    -0.789500
O      -1.202558    -1.256706    -0.789500
O      -0.381954     2.726371    -0.188190
O       0.381954    -2.726371    -0.188190
H      -1.363752     0.709445     0.970826
H      -0.026070     1.213440     1.979220
H       1.363752    -0.709445     0.970826
H       0.026070    -1.213440     1.979220
H       0.027338     3.219832    -0.912875
H      -0.027338    -3.219832    -0.912875

@pcseg2.gbs

--Link1--
%chk=succinicA.chk
%mem=500mw
%nprocs=4
# rohf/gen geom=check guess=check

butanedioic acid, ROHF/cc-pVTZ-F12

0 1

@ccpvtz-f12.gbs
