%mem=1000mw
%nprocs=12
# b3lyp/gen opt freq symm=loose

term-butyl, B3LYP/pcseg-2

0 2
C	0.0000000	0.0000000	0.1525550
C	0.0000000	1.4853560	-0.0151420
C	1.2863560	-0.7426780	-0.0151420
C	-1.2863560	-0.7426780	-0.0151420
H	0.0000000	1.7822950	-1.0796440
H	1.5435130	-0.8911470	-1.0796440
H	-1.5435130	-0.8911470	-1.0796440
H	-0.8855280	1.9479900	0.4326920
H	0.8855280	1.9479900	0.4326920
H	2.1297730	-0.2071060	0.4326920
H	1.2442450	-1.7408850	0.4326920
H	-1.2442450	-1.7408850	0.4326920
H	-2.1297730	-0.2071060	0.4326920

@pcseg2.gbs

