%chk=tetrahedrane.chk
%mem=500mw
%nprocs=4
# b3lyp/gen opt freq CPHF(Grid=OneStep)

tetrahedrane, B3LYP/pcseg-2

0 1
C       0.521357     0.521357     0.521357
C      -0.521357    -0.521357     0.521357
C      -0.521357     0.521357    -0.521357
C       0.521357    -0.521357    -0.521357
H       1.137842     1.137842     1.137842
H      -1.137842    -1.137842     1.137842
H      -1.137842     1.137842    -1.137842
H       1.137842    -1.137842    -1.137842

@pcseg2.gbs

--Link1--
%chk=tetrahedrane.chk
%mem=500mw
%nprocs=4
# rohf/gen geom=check guess=check

tetrahedrane, ROHF/cc-pVTZ-F12

0 1

@ccpvtz-f12.gbs
