%mem=1000mw
%nprocs=12
# b3lyp/gen opt freq

tetrahedrane, B3LYP/pcseg-2

0 1
C	0.5221230	0.5221230	0.5221230
C	-0.5221230	-0.5221230	0.5221230
C	-0.5221230	0.5221230	-0.5221230
C	0.5221230	-0.5221230	-0.5221230
H	1.1393910	1.1393910	1.1393910
H	-1.1393910	-1.1393910	1.1393910
H	-1.1393910	1.1393910	-1.1393910
H	1.1393910	-1.1393910	-1.1393910

@pcseg2.gbs

