%mem=500mw
%nprocs=6
# b3lyp/gen opt freq

tetrahydrofuran, B3LYP/pcseg-2

0 1
O	0.0000000	0.0000000	1.2271070
C	0.0000000	1.1621240	0.4334700
C	0.0000000	-1.1621240	0.4334700
C	0.3015860	0.7016630	-0.9890610
C	-0.3015860	-0.7016630	-0.9890610
H	-0.7344300	-1.8551480	0.8223180
H	0.7344300	1.8551480	0.8223180
H	-0.9757140	1.6360040	0.4914950
H	0.9757140	-1.6360040	0.4914950
H	1.3727640	0.6503090	-1.1495530
H	-1.3727640	-0.6503090	-1.1495530
H	-0.1198230	1.3570510	-1.7391410
H	0.1198230	-1.3570510	-1.7391410

@pcseg2.gbs

