%chk=THF.chk
%mem=500mw
%nprocs=4
# b3lyp/gen opt freq CPHF(Grid=OneStep)

tetrahydrofuran, B3LYP/pcseg-2

0 1
O      -0.000000    -0.000000     1.249000
C      -0.000000     1.174701     0.428929
C      -0.000000    -1.174701     0.428929
C       0.301354     0.704856    -0.994124
C      -0.301354    -0.704856    -0.994124
H      -0.743924    -1.870619     0.818688
H       0.743924     1.870619     0.818688
H      -0.982705     1.654815     0.488225
H       0.982705    -1.654815     0.488225
H       1.379058     0.656930    -1.160130
H      -1.379058    -0.656930    -1.160130
H      -0.128476     1.358840    -1.751615
H       0.128476    -1.358840    -1.751615

@pcseg2.gbs

--Link1--
%chk=THF.chk
%mem=500mw
%nprocs=4
# rohf/gen geom=check guess=check

tetrahydrofuran, ROHF/cc-pVTZ-F12

0 1

@ccpvtz-f12.gbs
