%mem=1000mw
%nprocs=6
# b3lyp/gen opt freq

thiophene, B3LYP/pcseg-2

0 1
S	0.0000000	0.0000000	1.1988000
C	0.0000000	1.2406260	-0.0124720
C	0.0000000	-1.2406260	-0.0124720
C	0.0000000	0.7137280	-1.2711690
C	0.0000000	-0.7137280	-1.2711690
H	0.0000000	2.2797890	0.2812390
H	0.0000000	-2.2797890	0.2812390
H	0.0000000	1.3185930	-2.1697860
H	0.0000000	-1.3185930	-2.1697860

@pcseg2.gbs

