%chk=TMA.chk
%mem=500mw
%nprocs=4
# b3lyp/gen opt freq CPHF(Grid=OneStep)

trimethylamine, B3LYP/pcseg-2

0 1
N       0.000000     0.000000     0.364774
C       0.000000     1.388026    -0.059121
C       1.202066    -0.694013    -0.059121
C      -1.202066    -0.694013    -0.059121
H       0.000000     1.501178    -1.158001
H       1.300059    -0.750589    -1.158001
H      -1.300059    -0.750589    -1.158001
H      -0.882647     1.895805     0.330795
H       0.882647     1.895805     0.330795
H       2.083138    -0.183508     0.330795
H       1.200492    -1.712297     0.330795
H      -1.200492    -1.712297     0.330795
H      -2.083138    -0.183508     0.330795

@pcseg2.gbs

--Link1--
%chk=TMA.chk
%mem=500mw
%nprocs=4
# rohf/gen geom=check guess=check

trimethylamine, ROHF/cc-pVTZ-F12

0 1

@ccpvtz-f12.gbs
