%mem=1000mw
%nprocs=12
# b3lyp/gen opt freq

toluene, B3LYP/pcseg-2

0 1
C	0.0037170	0.9111950	0.0000000
C	0.0069770	0.1938910	1.1998000
C	0.0069770	-1.1985730	1.2026960
C	0.0062300	-1.9009870	0.0000000
C	0.0069770	-1.1985730	-1.2026960
C	0.0069770	0.1938910	-1.1998000
C	-0.0268320	2.4209170	0.0000000
H	0.0115150	0.7335970	2.1426210
H	0.0118460	-1.7350630	2.1462290
H	0.0095200	-2.9859100	0.0000000
H	0.0118460	-1.7350630	-2.1462290
H	0.0115150	0.7335970	-2.1426210
H	-1.0574430	2.7968950	0.0000000
H	0.4675270	2.8306860	0.8856710
H	0.4675270	2.8306860	-0.8856710

@pcseg2.gbs

