%mem=1000mw
%nprocs=12
# b3lyp/gen opt freq

urea, B3LYP/pcseg-2

0 1
C	0.0000000	0.0000000	0.1472450
O	0.0000000	0.0000000	1.3605930
N	-0.1348100	1.1537110	-0.6137430
N	0.1348100	-1.1537110	-0.6137430
H	0.0000000	1.9934320	-0.0713580
H	0.3155520	1.1705890	-1.5165450
H	0.0000000	-1.9934320	-0.0713580
H	-0.3155520	-1.1705890	-1.5165450

@pcseg2.gbs

